35
Coordinates from ORCA-job input
  C   -1.35686330465262      1.47510410058303      0.15633107685822
  C   0.19347120258383      1.50943150496973     -0.02778879925376
  C   -1.98490533983737      0.20961861081613     -0.44186553741571
  C   -1.28156404316316     -1.00759381141533      0.12656198937447
  C   0.21944719013546     -1.00689859195008     -0.10300139266059
  N   0.78613777094133      0.23394992789139      0.43811645362129
  C   0.58230379956994     -1.27087830049112     -1.57106297267643
  C   0.83055966385629     -2.12855363279822      0.73413746709257
  C   0.83883899740520      2.52810283907255      0.92507285412364
  C   0.58203634221793      1.87871492637819     -1.46538631397904
  O   2.14380254937600      0.27513964502270      0.20525458472631
  H   0.38144530093586      2.48801917294859      1.92217812272234
  H   0.86059314356337      3.55261771830295      0.53955151353772
  H   1.87056003670886      2.16963741315738      1.01594346635191
  H   -0.04707329800587      1.39140762853664     -2.21111582745438
  H   1.61557690964674      1.53380227166430     -1.57191534780256
  H   0.53501843379014      2.95695266450472     -1.64316719425775
  H   0.62392036569877     -1.94817060201231      1.79206320675031
  H   1.91113704259005     -2.12279154671514      0.59247962674511
  H   0.41513309018675     -3.09973061480059      0.44500408253554
  H   -0.05370749164192     -0.73195706385835     -2.27632374967927
  H   0.50893063545334     -2.33689048937943     -1.80645214942472
  H   1.61741253722208     -0.94150207290603     -1.69659538563414
  H   -1.53533948681662      1.45870048900161      1.24009175560377
  H   -1.47697391813460     -1.04349711225506      1.20147335283418
  H   -1.85477375212247      0.25219743662992     -1.52871622583922
  C   -3.48748412713896      0.08676892842985     -0.18387678556728
  H   -1.72220187397816     -1.91358004620796     -0.29885348318882
  C   -1.93417825867230      2.74734626863351     -0.40820935704537
  O   -3.96453615558438     -0.68844657475237      0.60273306449882
  O   -4.27902877031088      0.86817587894050     -0.92187388636590
  H   -3.71979066366440      1.55215644857639     -1.35902673407571
  O   -2.63318483105073      2.82914312219974     -1.39750357364861
  O   -1.63869676371791      3.87285500405787      0.24826353423808
  H   -0.96329293338957      3.66735845922429      0.91243856435502
