32
Coordinates from ORCA-job input
  C   -2.96234293463654      0.34367116845932     -0.52120797751124
  C   -2.26908569993637     -0.77307718039285      0.02318888675149
  C   -2.37738725764084      1.61203075880576     -0.00033030832023
  C   -1.15523110681671     -0.30005548850027      0.90691622738228
  N   -1.03487164355245      1.12408068265634      0.43596713372586
  O   -0.41473681454374      1.94244804785191      1.32790168456408
  C   -1.46924340930615     -0.37900395155769      2.40613943687817
  H   -1.10886887277744     -1.30800773107722      2.86005716166370
  H   -2.53887571026487     -0.28883460670279      2.60537075781625
  H   -0.94708679190892      0.48585822672488      2.83955425455625
  C   0.21158398403426     -0.92007303674203      0.64094865523344
  H   0.30662324473223     -1.93856475537744      1.03509568673755
  H   0.94962137906670     -0.27883364982074      1.13059231666998
  H   0.41356541595171     -0.92536465894530     -0.43172911475863
  C   -3.18303742065001      2.20826786439459      1.16194371120510
  H   -3.67008015925253      1.43149594128986      1.75434667775891
  H   -3.94970983389012      2.90799346771962      0.81448298970751
  H   -2.44179522900544      2.72444042031804      1.78520033442442
  C   -2.14106778877969      2.68238401960024     -1.05615348058050
  H   -3.08330371335259      3.09609700089954     -1.43376538821022
  H   -1.57030707740821      2.25863825768496     -1.88479409764199
  H   -1.55037914108606      3.48202116452165     -0.60154296657278
  C   -2.87901057038740     -1.88828240574885     -0.48394381021353
  C   -3.95213423550504     -0.10579221645427     -1.34625656002544
  N   -3.88751945229888     -1.49005408398548     -1.32047312767203
  H   -4.67899560945166      0.40362104814260     -1.95853966206628
  H   -4.53259573458388     -2.12656600075345     -1.74808298826984
  O   -2.70050041886614     -3.22983053848646     -0.34725567256359
  C   -2.29781274538785     -3.62669173402276      0.94367649173837
  H   -2.29109709323983     -4.71813003272932      0.94884641139823
  H   -2.99379867059436     -3.25300148381816      1.70250756302283
  H   -1.29832888866108     -3.25578451395422      1.18183877317187
