40
Coordinates from ORCA-job input
  C   -3.51970312072452      1.63939897181200     -0.02280359241860
  C   -4.92881276215503      1.68754024115378      0.00559784900640
  C   -5.66765647156343      0.53793850572052     -0.00070543467081
  C   -2.86161977096683      0.43664493482670     -0.03868646691871
  C   -5.02487085079061     -0.72250624384774      0.01667287943985
  C   -3.60526998945315     -0.76164004758960      0.03692372430343
  C   -5.73500106361483     -1.94024051089137      0.02706073725450
  C   -2.93261578205742     -1.99072449533613      0.15198726473614
  C   -5.05915637499121     -3.13182889749035      0.07830586709189
  C   -3.65780619526561     -3.15647950323883      0.15956377743639
  H   -5.42694048374456      2.65172055000414      0.01349678163193
  H   -6.75278328727076      0.57429622867820     -0.00619617179350
  H   -2.94058939839421      2.55410584797006     -0.03967131463157
  H   -6.82014805480010     -1.91744312420406     -0.00204517659111
  H   -5.60977792129812     -4.06704919081986      0.08034473462735
  H   -3.12509406291453     -4.09473664360890      0.25373962664548
  C   -1.36451454380139      0.35702801049538     -0.24359918825049
  C   -1.43174737148771     -2.05886872271335      0.39319374179390
  N   -0.80668518562203     -0.78777958670452      0.36447627284058
  O   -0.86584961772229     -3.04050083981826     -0.44675482237874
  O   -1.24102783023840     -2.70006540744078      1.65307755820395
  O   0.54923491766652     -0.82271339374135      0.45271341540604
  O   -0.75257159597086      1.53117110220962      0.21820992924931
  C   -0.52184848320032      1.56086739541008      1.60672437825978
  H   -0.11214112011861      2.55057177955238      1.82434197382222
  H   0.19805194470225      0.77658378942219      1.86308423492373
  H   -1.45392783318705      1.43314602504399      2.17394165341975
  C   -0.51474519229066     -2.58277154649651     -1.72755509231875
  H   -0.07566790461904     -3.44094870455157     -2.24269174605861
  H   0.21315161276979     -1.77153347323504     -1.64851929479666
  H   -1.38810856018375     -2.23770519433903     -2.29662975898775
  C   -1.37866898770109     -1.85079422300016      2.75490111119515
  H   -1.31528656644001     -2.48847486551466      3.64060482065627
  H   -2.34902892693752     -1.33322774356016      2.76974631277968
  H   -0.57647224666973     -1.10846165741121      2.77483296685154
  O   -1.12197333446912      0.35283959487893     -1.66428448576037
  C   -1.27233225144650      1.55323300371392     -2.36384605232962
  H   -1.03371742613670      1.33412871080530     -3.40843482076638
  H   -0.59359283771952      2.32923925558257     -1.99763604622940
  H   -2.30239506917098      1.93585006827377     -2.32063214667420
