33
Coordinates from ORCA-job input
  C   -3.45199146760980      1.90621098318868      0.44282406116392
  C   -4.85737400664240      1.87094989229886      0.48799785420555
  C   -5.53316547708896      0.70965180685666      0.22649073311722
  C   -2.72032328650275      0.77814461793413      0.15744742800352
  C   -4.82427478725632     -0.47377512432817     -0.07756451412137
  C   -3.40097014529806     -0.43981350336741     -0.08878683918474
  C   -5.48031405646938     -1.68706262340395     -0.38193809303092
  C   -2.66371683479588     -1.62300262924336     -0.35394856007219
  C   -4.75357340740893     -2.80590670385278     -0.68639176720721
  C   -3.34703945287418     -2.77105506552270     -0.67091967138677
  H   -5.40773852007673      2.77755322921559      0.72011943156717
  H   -6.61859701534419      0.68290780686454      0.24197507522528
  H   -2.93152781483185      2.84267022259699      0.61908423599887
  H   -6.56593517932687     -1.71225789645195     -0.38130361504284
  H   -5.26203510699693     -3.73279693063798     -0.93276228934081
  H   -2.78744090570733     -3.67260164428093     -0.89782935154823
  C   -1.22869950569686      0.79698117114905      0.07165371598797
  C   -1.16683534605515     -1.58102065103892     -0.27165782499182
  N   -0.71755748995320     -0.27071145295040     -0.74280574705987
  H   -0.76773825334166     -2.30085258232880     -0.99977405951099
  C   -0.60837862389677     -1.99506975544706      1.12497913373911
  H   -0.88936657546517      1.72936593591246     -0.39204868618168
  O   0.64973703824047     -0.18018921714302     -0.80147606873095
  H   -0.55704832067427     -1.07449962051767      1.72028406365156
  C   0.81189013368092     -2.51861119651705      0.97475533365658
  C   -1.46565958835353     -2.99017321251214      1.89373768995214
  H   1.37566023376780     -1.78667271347887      0.38973744949882
  H   0.80903561843044     -3.47892428267118      0.44315645135442
  H   1.27646363636191     -2.68080857026120      1.95564864957055
  H   -2.47147261747925     -2.61364357847255      2.09292542784738
  H   -0.99119587288647     -3.22471201272194      2.85428816692077
  H   -1.57198714138997     -3.93288960866095      1.34591752392543
  H   -0.78004986105856      0.80371490979406      1.09313466202412
