29
Coordinates from ORCA-job input
  C   -3.17290444898873      1.37659482058056     -0.83143827885245
  C   -3.03500780574235      0.00947600995381     -1.05144134549799
  C   -2.12144997540344      1.85098014274135      0.12066932669009
  C   -1.87483690985618     -0.51958212199861     -0.26690859267980
  N   -1.14764990889245      0.74123746676732      0.01343387319905
  O   -0.26158559027876      0.66772293177964      1.03615872001056
  C   -2.30697322180583     -1.25046221506549      1.01384788679836
  H   -2.45610797478725     -2.32114141012809      0.84777460873269
  H   -3.22539098452716     -0.83722064604415      1.43504793384482
  H   -1.48444810227850     -1.08330479449385      1.72069738552120
  C   -0.93960497717146     -1.41864250751466     -1.06534710167090
  H   -1.40302707043486     -2.38090287432297     -1.30859714719913
  H   -0.04718066466493     -1.59080020912172     -0.45872501488366
  H   -0.63907999599396     -0.91434730320837     -1.98591407752546
  C   -2.66569304206859      2.03346944003976      1.54799609555010
  H   -3.46654728147365      1.32756528803544      1.77498116500981
  H   -3.03687854075474      3.04703051254919      1.72433416750899
  H   -1.80774434812044      1.82020042282376      2.19748400862080
  C   -1.41614237600081      3.12960527856597     -0.31307705972274
  H   -2.07702995885885      4.00168693712563     -0.25988928122864
  H   -1.03897966484072      3.01709304578367     -1.33151904562150
  H   -0.56486419029975      3.27994708605228      0.35502195824353
  C   -3.95104419368968     -0.63179302800881     -1.86380931391662
  C   -4.22316286754932      2.04558917932179     -1.43481070949842
  N   -4.97268828222371      0.00000204923996     -2.45501356946504
  C   -5.08845233103657      1.30490663784224     -2.23477443272001
  H   -4.37898233972124      3.11047567885853     -1.29607193580553
  H   -5.92789360733010      1.79660185912156     -2.72402539889320
  H   -3.87479934520570     -1.70030767727586     -2.05380482454890
