45
Coordinates from ORCA-job input
  C   -3.44248844529109      1.92313177663915     -0.12918006197632
  C   -4.86455795375620      1.88861365398120     -0.09700350167676
  C   -5.51909663048151      0.70036198771491      0.07208886741996
  C   -2.70261302492541      0.75900521816682      0.04557628845498
  C   -4.81544574115201     -0.50952230750990      0.16585941748165
  C   -3.39240193664378     -0.48413950687480      0.14305898673611
  C   -5.50625510899111     -1.73733020635192      0.25993100669947
  C   -2.70432003556340     -1.72842510363852      0.16112591338230
  C   -4.83167742220239     -2.92463559015407      0.29397642601045
  C   -3.42330478394795     -2.89525445004207      0.23036517033850
  C   -5.66485660680552      3.14988177630262     -0.23788126013560
  H   -6.60521438238837      0.67867500783091      0.11023987141905
  C   -2.82866902639878      3.27411927022506     -0.36777383382650
  H   -6.59286965051655     -1.71964285659436      0.28909461584135
  C   -5.54584478673340     -4.23827095428940      0.38475849030228
  H   -2.89039650065862     -3.83921433200569      0.23720421501023
  C   -1.18528743483398      0.76421578548584      0.17540334865072
  C   -1.20645306235067     -1.75112573122455      0.03343086987497
  N   -0.66996331252449     -0.54136529058272      0.65869087456361
  C   -0.81350790942662     -1.92623412682035     -1.44806792319686
  C   -0.59292610557756     -2.90903765993898      0.82337654138717
  O   0.70560811497989     -0.54032277489473      0.58287784494565
  C   -0.75714895241427      1.70093038569012      1.31962347387982
  C   -0.47998551835279      1.17606153335901     -1.13576761634864
  H   -1.35089795389047      1.48273442513617      2.21009412149814
  H   -0.84130487792418      2.76108073073893      1.08118056011246
  H   0.28505665936229      1.44383348219201      1.51918138562459
  H   -1.06936046215982      0.94101210102807     -2.02429332314746
  H   0.45711271574306      0.60341494073336     -1.11317130112647
  H   -0.22150575444990      2.23750448604328     -1.16728213177020
  H   -0.95897119954902     -2.89415248825935      1.85264387676926
  H   0.48238538213634     -2.73195628348105      0.83413836230047
  H   -0.81261503657613     -3.87970796662646      0.37075126662740
  H   -1.37661689663412     -1.25512591085595     -2.09898547313427
  H   -0.99020370435263     -2.95224684580264     -1.78381744620009
  H   0.25243779815386     -1.69246363268725     -1.51659293597036
  H   -3.35514554726549      3.79112980857969     -1.17523150054781
  H   -1.78533732247063      3.20987546824003     -0.64837503632378
  H   -2.90260020371606      3.91487315575669      0.51834637295449
  H   -5.36364535592972      3.90962914915440      0.48983340824997
  H   -6.72668618622239      2.94285487328949     -0.09197901205351
  H   -5.54662482827360      3.60270059017268     -1.22822515292271
  H   -6.62911356070628     -4.10058215905808      0.40251739368500
  H   -5.25894304341465     -4.78293315814119      1.29005659403234
  H   -5.29966440490370     -4.88262027062640     -0.46535805389505
