28
Coordinates from ORCA-job input
  C   -3.62305442262397      1.21163400073981     -0.51191686565190
  C   -3.49184527560582     -0.13097427595552     -0.71306622479634
  C   -2.50018431546660      1.81262364123792      0.24908933301716
  C   -2.21843049579160     -0.59902574242493     -0.08324938971300
  N   -1.93529893273849      0.55152364827273      0.85326833968548
  O   -0.62866492456572      0.66708342884993      1.20808877204157
  C   -2.35757496178885     -1.84348164310566      0.78167925034153
  H   -2.56272812560505     -2.73552870246659      0.17853633505982
  H   -3.16257416641404     -1.70074263615450      1.50551709282988
  H   -1.42197102776226     -1.98600360118302      1.32888719396082
  C   -1.08441011544608     -0.80039785183785     -1.09183021495279
  H   -1.06670226738529     -1.81845513756941     -1.49373065791189
  H   -0.16358493310744     -0.58448100159633     -0.53415481872465
  H   -1.16130158240359     -0.10153808678480     -1.92701693122053
  C   -2.90974052500839      2.71108724993696      1.40858822486863
  H   -3.63623791885198      2.19229352345172      2.03717007141794
  H   -3.33032281848359      3.66526676724665      1.06602939265378
  H   -2.01644317283405      2.90953255482687      2.00659431271566
  C   -1.47518814405011      2.53756726945186     -0.63123666175798
  H   -1.65428416723354      3.61635330241990     -0.68342286982141
  H   -1.45568177241186      2.13715963695197     -1.64675807957077
  H   -0.51172600648760      2.32560290274197     -0.14354140197500
  C   -4.60846229786953     -0.55949804650894     -1.47417844842973
  N   -4.76695285524112      1.63733716388116     -1.11513106169548
  C   -5.38315830265305      0.55900120956279     -1.70934800665587
  H   -6.31430314483211      0.67300604542566     -2.24259138513426
  H   -4.83855556576974     -1.55731790949076     -1.81935498678308
  H   -5.11357776156842      2.57785229008041     -1.11833031379758
