44
Coordinates from ORCA-job input
  C   -1.49676266867263     -0.24056392864365      0.37950546940045
  C   -0.18177434703457      0.53646343517467      0.52495085094904
  C   -0.39689012659961     -1.99724327479465     -0.92361909741945
  C   0.93401429029561     -1.22807000322664     -0.91390903626597
  C   -1.57252088876684     -1.05270161280310     -0.89182222318635
  H   -2.33132203193656      0.46521117639295      0.44186179289693
  H   -1.58624346363109     -0.91965856274524      1.23606608093807
  H   -0.42701258324956     -2.64767480711856     -0.04671973635007
  H   -0.42419463542480     -2.64793973567334     -1.79790636257376
  H   -1.53171115206209     -0.39643752267345     -1.76764918381920
  H   -2.52008003551645     -1.60383439725461     -0.94060153280243
  N   0.95164599729822     -0.33301951145870      0.22521269339379
  N   -0.01888044555491      0.97456060141389      1.93951644021288
  C   -0.19726785698027      1.80732146392607     -0.32673321217507
  N   1.05556330315325     -0.57875785971451     -2.22832630934233
  N   2.00309904360358     -2.24946601291295     -0.75322697725819
  O   2.17273628298250      0.29836237874906      0.40605931679136
  H   0.80011931767222      2.24231102175212     -0.26734621178844
  H   -0.92922645033331      2.53602630255914      0.03258102313362
  H   -0.43201727844539      1.56997045333867     -1.36577250437495
  C   0.59857615259967      0.00812394283503      2.80970161322313
  C   -1.18210726706444      1.55677513450172      2.54206068868495
  H   -1.62995443208874      2.31207052909438      1.89260816419708
  H   -0.88997576636497      2.05719743390786      3.47248313594128
  H   -1.97865135770973      0.83026545165475      2.80541476790739
  H   1.56928701358988     -0.25814663886730      2.38928050109613
  H   -0.00908077274748     -0.90551145022736      2.97074715253846
  H   0.74095795049679      0.47824010460685      3.79061469707264
  C   1.86338894064376      0.60374403385975     -2.39028371851736
  C   0.97276354704945     -1.40825389241316     -3.40007300743808
  H   2.15224075091433      0.95799283720858     -1.39265974095848
  H   1.31925468312352      1.38373722498018     -2.94487754659408
  H   2.78780159394674      0.39137062945551     -2.95720939161696
  H   1.06150584555561     -2.46802384139055     -3.14746781536913
  H   1.79715681829154     -1.17534617761854     -4.08918448391917
  H   0.03586391574903     -1.26766889411744     -3.96537606222737
  C   2.14486888293266     -2.71844549991644      0.60873546814374
  C   3.30799010708572     -1.88556807825394     -1.26454127330386
  H   1.17826410713359     -2.98326881181464      1.03728954830630
  H   2.60235700236774     -1.95093722205028      1.24904168957840
  H   2.77332666753053     -3.61833044248081      0.60839956545840
  H   3.25512513063814     -1.64353690154104     -2.32619717677516
  H   3.96582237981371     -2.75777547464527     -1.16310035116937
  H   3.73998383571558     -1.03330360105498     -0.72467770461876
