34
Coordinates from ORCA-job input
  C   -2.61666794868057      1.46161605879025     -1.05042419804168
  C   -2.82676676964642     -0.05509434978046     -0.86004538699041
  C   -1.91579387559942      1.80899922178713      0.27052081506726
  H   -3.59703164582593      1.94537507163269     -1.10651223890251
  O   -1.99526670313450      1.92167588696833     -2.24503284434216
  C   -1.66304351560917     -0.56792567789980      0.01656240000048
  O   -3.27100170639530     -0.84245511786342     -1.95556307209480
  H   -3.70453380273324     -0.10052104718219     -0.21111714061531
  N   -0.96970385258527      0.68679264739272      0.40387312994864
  O   -0.34108691131275      0.63842534561073      1.61407317272596
  C   -2.18865427396144     -1.34139665699082      1.23052740324193
  H   -2.45039774328306     -2.36936023573836      0.96024527478813
  H   -3.06642436897573     -0.86811663516259      1.67614689491908
  H   -1.38993075653813     -1.32143846303011      1.97704012935388
  C   -0.63763907830376     -1.47028461729804     -0.66498218244375
  H   -1.08668424302760     -2.40261605794925     -1.02225625431374
  H   0.12855239085060     -1.70336822561675      0.07892674399429
  H   -0.14113962521727     -0.96716337285793     -1.49526949042526
  C   -2.90348768383279      1.90151394300175      1.44966677178319
  H   -3.75987541113084      1.23124277133168      1.34929582509810
  H   -3.28564506989958      2.91785476967029      1.58602248321355
  H   -2.31684311342007      1.60417338620283      2.32685877321321
  C   -1.12578099308396      3.11049159343323      0.25811977402194
  H   -1.78357800967387      3.97073325433904      0.10014495819523
  H   -0.35133513516917      3.11337083685802     -0.50638739264499
  H   -0.63419646466911      3.19529636904905      1.22947775441854
  C   -2.58759470340993     -0.80975862376884     -3.17865986923515
  H   -3.05617900757941     -1.57354105496024     -3.80626889787929
  H   -1.52787980728625     -1.05957362833356     -3.07751831760113
  H   -2.67375402105853      0.16164652133035     -3.67442111415209
  C   -0.63091802216178      1.65253344900066     -2.47261073971242
  H   -0.13527756605339      2.58995052478784     -2.74952231014858
  H   -0.52171840677651      0.95217153925800     -3.31192967876227
  H   -0.15761215481577      1.23431057398771     -1.57671117567786
