19
Coordinates from ORCA-job input
  C   -1.67647107567114      0.08060640177100      0.01393034684174
  C   -0.32201557129456      0.75333765210734      0.09504622693028
  C   -0.60480177490580     -1.56899124107205     -1.58304295253918
  C   0.68075891194060     -0.79124149263104     -1.39266481847245
  C   -1.79914878677938     -0.65394474368666     -1.31940725386537
  H   -2.47233491710392      0.82606012115445      0.12028430644745
  H   -1.75090995348606     -0.61650033822182      0.85401276391519
  H   -0.59229799991612     -2.40776404193390     -0.88049064155734
  H   -0.64780105155970     -1.97836914926963     -2.59843945061710
  H   -1.85040712110734      0.09175164594031     -2.12334299443338
  H   -2.73621760463431     -1.22028413374475     -1.36334023081246
  N   0.70099534315805     -0.25002510682271     -0.05757002488245
  O   1.94505753460725      0.34632623173234      0.16166128706296
  O   -0.09161333709004      1.38849059099558      1.31716093890683
  O   1.82759773801189     -1.57677982890512     -1.53153265404871
  H   -0.23368621435878      1.50729402102258     -0.72766953654357
  H   0.89453039502293      1.29018540680846      1.32862135634236
  H   2.41332851359394     -1.05597044616987     -0.92535153162634
  H   0.72117697157251      0.04486845092554     -2.13569513704843
