40
Coordinates from ORCA-job input
  C   0.80548663136916      0.48791413583541      1.62792831538246
  C   -0.07898642442931     -0.28188741874042      0.88710645522260
  C   2.13058866943896     -0.20277509717876      1.65502876041141
  C   0.61700988828661     -1.52010786197679      0.38014743199135
  N   2.03058308527204     -1.12374338911945      0.53915922362045
  C   0.30546717249360     -1.74227826963603     -1.11046135508144
  C   0.20411284444945     -2.70157129749134      1.29250540717796
  C   3.37758861828805      0.66290617853089      1.53435758569592
  C   0.36288854043757      1.65308399546376      2.23230720217484
  C   -1.40621653504576      0.09154484927405      0.73540017930605
  C   -0.96340274543516      2.04317059048741      2.08996605420753
  C   -1.84344366962209      1.26632424341141      1.34365340215824
  O   2.91775971284427     -2.16144346048896      0.66109237574707
  C   3.40033254721616      1.52603245362703      0.28548047338954
  H   2.57910731686145      2.24943480242322      0.28326154097182
  H   3.28156709310086      0.88899044751571     -0.59247631427145
  H   4.34072506602242      2.08014654567823      0.20062995530914
  H   4.21530742852924     -0.04063242371910      1.51738359608443
  H   3.48172067421993      1.27879015641740      2.43720601321955
  C   1.34628654661680     -2.53145532413294     -1.89490982036875
  H   1.23564028927910     -2.33889671233441     -2.96818550673017
  H   1.25898757045132     -3.60747077081684     -1.73825227263892
  H   2.34452952711520     -2.24394237435839     -1.55754662831411
  H   0.23496294487470     -0.74384046494697     -1.55517085044674
  H   -0.69022099511142     -2.20040067335241     -1.21320315830347
  C   0.60963774595644     -4.09326053050468      0.83690873850951
  H   -0.88299715220003     -2.65853993397008      1.43852305232382
  H   0.66011988727222     -2.50819111054067      2.26954852712462
  H   0.06889978696898     -4.39803663051574     -0.06449954025752
  H   0.38444900884604     -4.82939944196231      1.61757322225580
  H   1.68111533814801     -4.08876622674139      0.63382644059187
  H   -2.07779412400963     -0.52571284401346      0.15156203665205
  H   1.04319172944000      2.26594478300000      2.81582048540758
  H   -1.33896638052105      2.94945336630045      2.55177637244485
  O   -3.12958148499743      1.73405513460052      1.25978663197601
  C   -4.04348022693549      0.95729368380332      0.54089832233604
  H   -5.00023384389354      1.47835676129248      0.59140469928608
  H   -4.15716896606531     -0.04438961198978      0.97383167328442
  H   -3.75021812006017      0.84840963405247     -0.51057267846618
  H   2.23084500452778     -0.77822989318277      2.60511395061567
