27
Coordinates from ORCA-job input
  C   -2.19602330532517      0.08512679979571     -0.29207100620796
  C   -1.14656140549426     -0.69615913718186      0.27733780179769
  C   -2.01159427443338      1.35159024871996      0.13797980689016
  C   -0.39502282666874      0.14747109359765      1.01665015714869
  O   -0.90688474504322      1.41530291548096      0.94428927788905
  C   -1.29341066142833     -2.12257425942259     -0.13308890584407
  C   -3.09486470142162     -0.78351752434255     -1.10494708251011
  N   -2.18888194360366     -1.95586245425588     -1.32215521194606
  O   -2.83700085390636     -3.09223591389765     -1.68390205587743
  C   -0.01219459018935     -2.77353347983902     -0.63444523314723
  C   -1.92267940833880     -3.00265877324005      0.95428448108219
  C   -4.38496294343738     -1.16816247063850     -0.36930348605904
  C   -3.44106349934681     -0.23085746265939     -2.48007330969347
  H   -2.61042756715471     -2.44049238989795      1.58849868684998
  H   -1.16672161772735     -3.46808322042858      1.59405246833759
  H   -2.48569737523276     -3.76715344457626      0.40354493911361
  H   0.44272065005455     -2.14542202105778     -1.40259966900092
  H   -0.28069559563819     -3.73219889117172     -1.08555555809034
  H   0.70585470341976     -2.93993773527282      0.17646320999684
  H   -4.23883271146382     -1.22048404380148      0.71098292647389
  H   -4.63580057571084     -2.16723624420701     -0.74818749836720
  H   -5.19891916897739     -0.46530316632289     -0.57174426510613
  H   -2.52681130487529      0.05797135026497     -3.00204703007112
  H   -4.11461475764864      0.63104490099115     -2.41457238492595
  H   -3.92620689484412     -1.02950330672772     -3.04699424244518
  H   0.48770675482013      0.04075049676921      1.62598374015089
  H   -2.52628938038404      2.28642813332219     -0.01366055643835
