27
Coordinates from ORCA-job input
  C   -3.33035925760544      1.33608138886021     -0.59504930332308
  C   -3.19384520066189     -0.02510288754891     -0.82274537287312
  C   -2.24591566228665      1.83253612925761      0.29789022023865
  C   -2.00415483424555     -0.56085972996148     -0.09833186438040
  N   -1.79935567178206      0.54257111978511      0.86188879957346
  O   -0.60479546907826      0.56942898407547      1.47024648432954
  C   -2.27897072141448     -1.83682746560248      0.68397310178250
  H   -2.48302622753479     -2.67521856636034      0.01359889726764
  H   -3.13232305323602     -1.68770430747366      1.34833047849879
  H   -1.39997701023312     -2.05437652588240      1.29462081786704
  C   -0.80497102207404     -0.78571111250434     -1.03294044904077
  H   -0.83499187114917     -1.77197474203315     -1.50069926321801
  H   0.08111099926954     -0.68937752676561     -0.39785298770647
  H   -0.75202170629865     -0.03264271013806     -1.82209762483728
  C   -2.72740608572298      2.70579447027189      1.45082685645752
  H   -3.53266208995453      2.20054557474291      1.98762654580005
  H   -3.07454959633260      3.68512239225320      1.10551032272786
  H   -1.88833014252242      2.84191905147508      2.13665231452563
  C   -1.13805076100863      2.57698641253885     -0.46927955213671
  H   -1.34745758176947      3.64554922386315     -0.56623326803410
  H   -0.98054209136250      2.16302588752042     -1.46694478173109
  H   -0.22977978388732      2.42299382172890      0.12312254854795
  N   -3.97922945292430     -0.70286828787066     -1.64480690175984
  C   -4.34055414724682      1.94254835089939     -1.29842331476549
  N   -4.95159368112317     -0.04685008340358     -2.27685580685442
  N   -5.13335915720564      1.23116697800423     -2.11929938427161
  H   -4.55624872060891      3.00539416026826     -1.24439751268423
