47
Coordinates from ORCA-job input
  N   1.22677633496554     -0.35478498190360     -0.15543230046539
  C   0.16734330745810      0.47437911233049      0.43704138489988
  C   0.84933566283534     -1.72125998789299     -0.52877454891234
  C   -1.06771118226445      0.42025235107655     -0.44441102996036
  C   0.70643065098513      1.90130471466329      0.41258007292818
  C   -0.18398358065446      0.10892680601610      1.88579249260251
  N   -1.49056959091254     -0.94655173927545     -0.68558508059173
  H   -0.83152656979935      0.89925925568660     -1.41123441713837
  H   -1.87336236903690      0.98809172463795      0.02137532033533
  C   -0.43754937203618     -1.66644125390100     -1.35822612949986
  H   -0.21028213976464     -1.19676561531232     -2.33252997029864
  H   -0.76143414417757     -2.69189007100525     -1.54401702320468
  O   2.34296980689103     -0.33241441393424      0.67278916197733
  H   0.95397869359834      2.18520102394567     -0.61410000015954
  H   1.62594638806078      1.91562267862210      0.99811044751172
  H   -0.02157136319445      2.60983528258162      0.82393788906077
  H   -0.93550677264003     -0.68223994801062      1.93222012935855
  H   -0.56897166782748      0.97495865822123      2.43495601666924
  H   0.74885113603035     -0.22406642062931      2.35133952239918
  C   0.65822913316345     -2.75613865451291      0.60873386379523
  C   1.92570310673651     -2.27283412272521     -1.48032299553916
  C   1.94950566806642     -3.16824102740996      1.30178054166237
  H   0.20372585906917     -3.65325903289992      0.15902558625202
  H   -0.06345300104067     -2.38578961822279      1.33567443038617
  C   3.21844618238280     -2.69443512953780     -0.79886383032071
  H   2.12502391415703     -1.49663007989809     -2.22572747344154
  H   1.49758339890756     -3.14075365690182     -2.00755825808246
  C   2.95317941933405     -3.71527873961462      0.29775603323094
  H   1.73161698297687     -3.92358059158293      2.06957792660683
  H   2.36771065719919     -2.27524852936536      1.77165486085846
  H   2.55775268947309     -4.64212365962524     -0.14790983461096
  H   3.88944603373729     -3.98493145203906      0.80133215893496
  H   3.64873230002190     -1.79435575761996     -0.35217211473227
  H   3.91212286138891     -3.10585910601831     -1.54478103206000
  C   -2.80692724556105     -1.17165596964389     -1.05763025713513
  C   -3.17084749452576     -2.00330234543320     -2.12310929679060
  C   -3.86004184107773     -0.58921697103708     -0.33503145067323
  C   -4.50145166818393     -2.24887917132375     -2.43299731609449
  C   -5.18195213498561     -0.82671661770077     -0.65492960744462
  C   -5.53262595503654     -1.66289991640486     -1.71341687864294
  H   -4.73666969408645     -2.90557055724956     -3.26644953496955
  N   -6.88324058330570     -1.95250814326443     -1.99271354617016
  H   -3.63162771213101      0.03932462136098      0.51678013151054
  H   -5.96341369572624     -0.36658699581631     -0.05637710760840
  H   -2.40450550842908     -2.46056184318176     -2.73403207966233
  H   -7.02660334384601     -2.21613096346680     -2.95651110993368
  H   -7.49624155719497     -1.18502314478130     -1.76038374683706
