32
Coordinates from ORCA-job input
  C   -3.48589179232121      2.10924596765831      0.12878913983666
  C   -4.88546916274335      2.07730834027895     -0.00064144768999
  C   -5.54437139008855      0.88451818529258     -0.14226940374676
  C   -2.75013027468703      0.94986994313630      0.13201804913109
  C   -4.82612444753225     -0.33049943784932     -0.15694427479362
  C   -3.41293191314392     -0.29117040157569     -0.00848477563043
  C   -5.45653376196574     -1.58559517511048     -0.31800352553450
  C   -2.66408328245815     -1.49109811870203     -0.01293745395947
  C   -4.71072354577945     -2.73305581829920     -0.33092580846432
  C   -3.31333927802656     -2.68824004521999     -0.17584190243863
  H   -5.44418285485598      3.00794610104789      0.00314221192107
  H   -6.62417760475796      0.85772594009158     -0.25359177414898
  H   -2.97528385327856      3.06311055810539      0.22074444304314
  H   -6.53558117467764     -1.62163560413081     -0.43395152841932
  H   -5.20068858278088     -3.69347850988697     -0.45876468788475
  H   -2.72658390999754     -3.59843830656306     -0.18071572213610
  C   -1.26458129593811      0.92633299331105      0.26050710863908
  C   -1.15502007466174     -1.45573792612797      0.18751631235183
  N   -0.65853228643216     -0.22904827334335     -0.35466889169284
  O   -0.54927750452300     -2.55484244430848     -0.43908212470359
  O   -0.97716423676494     -1.66860019219662      1.57942103690313
  H   -0.98230891600506      0.98543816158132      1.33024462795731
  O   0.71257687198459     -0.10369555202702     -0.31462386369594
  C   0.36101789693575     -1.89979075219367      1.99192713528824
  C   -0.27436039943437     -2.38417551780908     -1.81125058974564
  H   0.40167800003702     -1.63925267401367      3.05481263862501
  H   1.04108848213165     -1.27341266052311      1.40992369702259
  H   0.62623266134122     -2.95845289294064      1.87463317471103
  H   0.18186038648784     -3.32205675028810     -2.14108914348958
  H   0.41501858741827     -1.54554680688048     -1.94744363261124
  H   -1.19421069673193     -2.21681737184553     -2.38749478547804
  H   -0.81969064675016      1.79811504133193     -0.22617423916642
