45
Coordinates from ORCA-job input
  C   -3.45950915721438      1.90002874616201     -0.17716129612523
  C   -4.86161232126409      1.90816300711455     -0.14837399349232
  C   -5.58945822552807      0.76385465685790      0.05142276233514
  C   -2.73814341377923      0.74616946340677     -0.00597084661251
  C   -4.88032310331134     -0.46006113666287      0.22785385474717
  C   -3.44659836909647     -0.46569350030924      0.19846811230860
  C   -5.55184776966790     -1.68760749809287      0.42331416520469
  C   -2.74068852120821     -1.68951441952217      0.34152215811777
  C   -4.85125003892319     -2.85420778465865      0.56215171071618
  C   -3.45086969057840     -2.85329841675846      0.51636958244616
  H   -5.37110150320827      2.85507276079003     -0.28838068237290
  C   -7.10193109813521      0.77902228568766      0.03396660622007
  H   -2.93667602422949      2.83525206268488     -0.33637172779229
  H   -6.63363302748544     -1.71272548074680      0.45921380293148
  H   -5.38226012987358     -3.78989791532798      0.70742896734385
  H   -2.91774992604926     -3.78974325270465      0.62300194766190
  C   -1.23346919313631      0.76660355234731     -0.07300665755741
  C   -1.23639106893955     -1.72111794970831      0.25538249155867
  N   -0.66205629037401     -0.41196693215005      0.58715828391929
  C   -0.81024535980530     -2.23542486014879     -1.13549420402643
  C   -0.64980894301467     -2.66477810403830      1.31194928217480
  O   0.70317435101833     -0.43624350435708      0.40227691040703
  C   -0.67404459733937      1.94898195891519      0.72826594129327
  C   -0.78017306405626      0.92642066318386     -1.53975241099929
  H   -1.08040046820793      1.93212131402394      1.74198359385202
  H   -0.89343910601765      2.91354758067736      0.26287116551648
  H   0.40443815221300      1.79334917869599      0.77840590580571
  H   -1.36152788252574      0.30355440399943     -2.22113917677494
  H   0.26937088050608      0.61445084473657     -1.55226645966021
  H   -0.87021222713318      1.96457472245350     -1.87135674554760
  H   -1.03817627492357     -2.40336617661258      2.29889343758855
  H   0.42704633758402     -2.49152956330263      1.30011394414038
  H   -0.86437351331054     -3.71592244155712      1.10205380154911
  H   -1.40849961061238     -1.79758746920500     -1.93607804278839
  H   -0.89815389016866     -3.32340156406037     -1.20456919776767
  H   0.23700986448619     -1.93368354177857     -1.24370830475628
  C   -7.71121131754741      2.13480383627259      0.36282690710247
  H   -7.32891172502169      2.52712319981316      1.30782090829930
  H   -8.79874090176664      2.04847978162365      0.44017169103421
  H   -7.50011850440795      2.87121816631507     -0.41728372084873
  C   -7.63404346147022      0.28269508971720     -1.31129444520972
  H   -7.44799093832656      0.08464686667478      0.80820295207077
  H   -8.72702886144868      0.21714256459064     -1.30464821715057
  H   -7.22875150895579     -0.69903271605414     -1.56028899639113
  H   -7.33818855774472      0.97422752101262     -2.10527576047146
