31
Coordinates from ORCA-job input
  C   -3.29969691616853     -0.37944572256378     -0.79588552776595
  C   -2.32457802226250     -0.88304658765754      0.00448292549409
  S   -3.70967959632037      1.23156192589138     -0.38587252546397
  C   -1.89437706805997      0.05083219697783      0.98190311123466
  C   -2.55702103969177      1.25144124971275      0.89803556517518
  C   -2.01309641463600     -2.29097026567618     -0.39595230124462
  C   -3.77541175903070     -1.36897033311644     -1.80420286756863
  N   -2.60766499718577     -2.31688811344747     -1.77724180578105
  O   -2.91651909197142     -3.56177145872831     -2.21905065372464
  C   -0.52726723667190     -2.58601269548840     -0.54572417004270
  C   -2.65542074871570     -3.33027637618848      0.52691019734515
  C   -5.08916620486638     -2.04955000747515     -1.40254962339993
  C   -3.88793422282173     -0.83559217078638     -3.22450250853024
  H   -3.59178664094727     -2.97163806039405      0.95854182291973
  H   -1.98827653738165     -3.62493327950494      1.34191890190320
  H   -2.87141544015714     -4.18362656099186     -0.13084492102151
  H   -0.07143442790262     -1.84953458784185     -1.21068388190025
  H   -0.42774513534858     -3.57207271603181     -1.00636566887498
  H   -0.01285084429302     -2.57567798532528      0.41991517262100
  H   -5.20646561569683     -2.10219510016966     -0.31891555921860
  H   -4.99812274100339     -3.06845420076962     -1.80318428412430
  H   -5.96275039267747     -1.54292422615498     -1.82301085271992
  H   -2.95809671221978     -0.33937397328086     -3.50821625482700
  H   -4.72686891099486     -0.13947663834359     -3.33624941317299
  H   -4.03834451177229     -1.69253766858233     -3.88571053535617
  O   -0.92858285564769     -0.27878074486766      1.87837447096979
  H   -2.44106752650951      2.13123461440777      1.50980251008842
  C   -0.60727471693920      0.71013170372122      2.81212369177088
  H   0.17280290904380      0.29982482551118      3.45357793340187
  H   -1.47761030776628      0.97908420288130      3.42484636558213
  H   -0.23311627338318      1.61834875428337      2.32196068623138
