18
Coordinates from ORCA-job input
  C   -1.49364408168547     -0.29996324579149     -0.06461767154123
  C   -1.55991774133261     -1.69314967109605      0.03016551498186
  C   -0.05497743699324      0.08269110378686     -0.17613031588974
  C   -0.16476457841338     -2.22153943454079     -0.01834862415168
  N   0.62320846215282     -1.07164785290802      0.37984529949529
  H   0.09943654408816     -2.54119479228306     -1.05746250904167
  H   0.03064761889905     -3.07731549021498      0.63887910012739
  C   -2.65198618121296      0.45477054305363     -0.11794153631705
  C   -2.78497675621502     -2.33490089635923      0.07073161701857
  C   -3.88929611602790     -0.19171877589075     -0.06779973601934
  C   -3.95505399845236     -1.57315588984939      0.02571795471114
  H   -4.80589665402402      0.38896447816366     -0.10903096384472
  H   -4.92251001955258     -2.06522450377026      0.05719940476638
  H   -2.60352511890196      1.53670479376568     -0.19852739933250
  H   -2.84001173949166     -3.41752005976384      0.13684690575766
  O   1.93222980082363     -1.15729839258214      0.05160868958682
  H   0.22492189318328      0.99776246795693      0.35952197938891
  H   0.23089610315625      0.23128561832326     -1.24743770969608
