35
Coordinates from ORCA-job input
  C   -3.42376847372337      1.26141849219625     -0.70605012015840
  C   -3.22658176676237     -0.07487039942372     -0.91505926966633
  C   -2.33983798115536      1.90782728102292      0.07331936034617
  C   -1.92822603834894     -0.48146597906542     -0.28373132007292
  N   -1.26604542104316      0.87279179211427     -0.13014005590115
  O   -0.30145525481950      0.90658419853761      0.82464060145874
  C   -2.08398328105973     -1.17712748523648      1.07219117091208
  H   -2.06836160864020     -2.26886943706663      0.99091198022325
  H   -3.00474238917602     -0.88084674509089      1.57858502040188
  H   -1.21918291200698     -0.82871383549514      1.65654415828371
  C   -1.00904552799604     -1.29884823160526     -1.18032119131361
  H   -1.38295459802662     -2.31685009507215     -1.33953158303991
  H   -0.02862477060798     -1.34714682446995     -0.69948365142236
  H   -0.89804761067830     -0.80068210507739     -2.14509771070710
  C   -2.68017684367785      2.10473110799834      1.55530239247780
  H   -3.38671016146438      1.35305159617500      1.91230732859168
  H   -3.09056666872560      3.09819816276511      1.76283573685402
  H   -1.71981254500090      1.96609055775712      2.07224015420350
  C   -1.81562973878629      3.21210379998592     -0.51134164615491
  H   -2.53724966328467      4.03235837764642     -0.40759621200931
  H   -1.56725144211134      3.07115351241067     -1.56508377841251
  H   -0.90081427711900      3.47353299567536      0.02659113337676
  C   -4.33562119340916     -0.52630740680093     -1.67842284715323
  N   -4.58463066513181      1.64958495650971     -1.29237479422347
  C   -5.16767896570988      0.55328016144065     -1.89546766902673
  H   -4.94467368466414      2.58420496202453     -1.31709577535148
  O   -4.58483308166902     -1.77173593629003     -2.18826554483390
  H   -6.09917900693490      0.61523168046581     -2.43392625873975
  C   -4.50051963990528     -2.80980154064012     -1.23547025943450
  C   -4.68356351612234     -4.12261193123019     -1.95383299558222
  H   -5.27625138710425     -2.66857386237169     -0.46871830430760
  H   -3.53277930609921     -2.77632660117746     -0.72517212580638
  H   -5.64739749376670     -4.15181051488573     -2.46797600512522
  H   -4.64256871144045     -4.95308952784093     -1.24463371194753
  H   -3.89552437382810     -4.26249517588556     -2.69713620673904
