31
Coordinates from ORCA-job input
  C   -2.22839117626566     -0.35023019040476      0.76444294443735
  C   -2.10657844332825      0.58069089970966     -0.43965728295379
  C   -1.15207108190258     -0.00586868313677      1.79353860435258
  C   -0.71353890177734      0.41054061949589     -1.04675405775795
  H   -2.28606600606547      1.62263408914489     -0.14071983386853
  H   -2.82529961876034      0.30864760060149     -1.21602857674924
  C   0.23208338998817     -0.16319938520731      1.16641839560553
  H   -1.24501700133646     -0.66565808994234      2.66661077493827
  H   -1.28449073444720      1.02481744157174      2.14962317624323
  C   0.35458080101391      0.78042305331921     -0.02412345993945
  H   0.23267396710256      1.82389734467264      0.29671125476673
  H   1.34291127772059      0.67952876146694     -0.48524200082089
  C   -2.04622101425371     -1.80467791174967      0.30834445826276
  H   -3.22021086840425     -0.24622933504089      1.22672795349606
  C   0.40143918114377     -1.58483668592926      0.64571771210871
  H   1.00473784550410      0.05994509075810      1.91503364851799
  C   -0.66901522032597     -1.90895891195551     -0.40425314449862
  C   -3.22538966426029     -2.30064714915204     -0.51793614513710
  H   -1.98525565451437     -2.42091529456952      1.22172782319503
  H   0.33830207202911     -2.30816292612018      1.46984161504481
  H   1.38520280762223     -1.69421807581269      0.17662485137899
  N   -0.50025112108262     -0.95405249421489     -1.52406833313864
  C   -0.43693351426832     -3.29981341303166     -0.96173556530999
  H   -0.62352831167254      1.04077327055242     -1.93730823683255
  O   -1.40486483901911     -1.20611850868370     -2.55461000340206
  H   -0.65742425089996     -4.07220418193133     -0.21555495763297
  H   0.60643285994555     -3.39550845866599     -1.27835802521161
  H   -1.06818630167722     -3.41954254100149     -1.84258046167964
  H   -3.16626392604131     -1.85304776113482     -1.51424725987417
  H   -4.17251090977600     -2.05346325211763     -0.01892487958409
  H   -3.18841564199093     -3.38712492149051     -0.63954098795676
