33
Coordinates from ORCA-job input
  C   -4.19804313300546      1.10369254703578     -0.52867945957067
  C   -3.53947645971354     -0.14599230979079     -1.14561087561601
  C   -2.98658311112586      1.83302576962296      0.03987635208260
  C   -2.45091377833855     -0.52523655781632     -0.12584578401084
  N   -2.44466458687538      0.67856140852077      0.76202022161475
  O   -1.31364063168966      0.89315669554596      1.42954944114774
  C   -2.74161552251261     -1.71482824901645      0.78259983716727
  H   -2.59402883268906     -2.66576691882174      0.26991935759888
  H   -3.76228044926481     -1.68026883098374      1.16213645338957
  H   -2.04992279279904     -1.63250791702644      1.62491876226837
  C   -1.09824998028606     -0.75065157770507     -0.79653933762223
  H   -1.08953144956764     -1.71652204009291     -1.30866393663170
  H   -0.33435011724001     -0.72600462237081     -0.01625849452653
  H   -0.85624323891557      0.03079578578106     -1.52030828037708
  C   -3.27108393668716      2.93541551896876      1.05400042181603
  H   -3.73198844228092      2.54765869537336      1.96063200603186
  H   -3.90149687234752      3.71970287977376      0.62174674409636
  H   -2.31439186229750      3.36817880841324      1.35108296833926
  C   -2.03834162004866      2.44148956503575     -1.00363194537513
  H   -2.30193209439266      3.47824654912651     -1.23460680710224
  H   -2.00376817237835      1.88761754138201     -1.94300047649450
  H   -1.04190279556473      2.42444395278499     -0.54915536848619
  C   -4.45054043496700     -1.20478896992731     -1.71643284867852
  H   -3.03021626982765      0.19494752168952     -2.05939573988433
  C   -5.06467807775634      0.65229875746187      0.61256708200132
  H   -4.76905710179841      1.68560649784204     -1.26545586542290
  O   -4.17821655642564     -2.38339664772360     -1.71018059482432
  C   -5.65699276886530     -0.70843023413232     -2.48302571221361
  O   -5.80690221995710     -0.32028101899694      0.54910890829810
  H   -5.40619764445435      0.16388972896626     -3.09346372572263
  H   -6.42080086521411     -0.40872887404365     -1.76433351183336
  H   -6.03515380440033     -1.51211903325243     -3.11430030073474
  H   -5.06997437631277      1.28680557837592      1.50939050927546
