39
Coordinates from ORCA-job input
  C   0.72097934660546      0.51806344160303      1.44810559624150
  C   -0.13211274050486     -0.29842411131200      0.71156068192860
  C   2.04746034862429     -0.16992394628527      1.55978935142587
  C   0.57377230523966     -1.56784456972820      0.31260523220339
  N   1.97768538251090     -1.18898355959809      0.52968753087138
  C   0.33351188437047     -1.88196879867956     -1.17930329434476
  C   0.09211196204322     -2.69872486391869      1.25543059304903
  C   3.32025558541830      0.64545441164924      1.36032075091185
  C   0.25740616463804      1.70541439374580      2.01188108942272
  C   -1.45103233636874      0.06118779311434      0.49401935543831
  C   -1.07400637373474      2.05868611932246      1.78287856303425
  C   -1.91864619903426      1.25575257262798      1.03019016537106
  O   2.83577938049943     -2.22510978088548      0.78885193534861
  C   3.31901558491689      1.47658106241363      0.08846304897729
  H   2.41385719077108      2.08817375562684      0.00913300908941
  H   3.33747802370715      0.82014017706225     -0.78243767714357
  H   4.18436408798652      2.14634738099157      0.04692483047923
  H   4.10966758294213     -0.11142236183543      1.31120319181223
  H   3.51990050837051      1.27133200349661      2.23669811924501
  C   1.46137468906276     -2.62815671614987     -1.88024792846506
  H   2.42027243617586     -2.20273358187446     -1.58035528055528
  H   1.34511402819068     -2.55779807276674     -2.96780909469364
  H   1.48873911692336     -3.68311554343486     -1.60455145230679
  H   0.18935390176292     -0.92170905115117     -1.68600406086400
  H   -0.61382158373972     -2.43010344261898     -1.28731509244371
  C   0.49599871834200     -4.11199467396825      0.87007854255918
  H   -0.99963111296405     -2.63061534881953      1.34419612856080
  H   0.50841777782555     -2.47629374961605      2.24371087645333
  H   -0.00022635874103     -4.44023906637862     -0.04896441826059
  H   0.21961090091769     -4.81751473211003      1.66251667876612
  H   1.57692167603941     -4.13197102533406      0.72714360889584
  H   -2.11100306857013     -0.58137823393487     -0.08042661555185
  C   1.13576159129920      2.58945744661563      2.84610987569292
  H   -1.45465263315658      2.98066831270670      2.21445277136298
  H   -2.94964558426444      1.55794758814448      0.87433047961144
  H   0.54729227635767      3.37168758564548      3.33164194080200
  H   1.90819520082000      3.07328881551344      2.24065265391401
  H   1.65363621806056      2.01849973905380      3.62076975500448
  H   2.12889412065668     -0.65477736893296      2.56254855815626
