43
Coordinates from ORCA-job input
  C   0.40531799686830     -1.05203825347015     -1.38222977517762
  C   -0.86227977248175     -0.75740810481950     -0.55932860378451
  C   0.66420441343123     -0.11008033051048     -2.54753068125912
  C   -0.84683060341689      0.74979297191605     -0.19155425685104
  C   0.69889793194660      1.33687179301419     -2.08059559350203
  C   -0.59394025414084      1.69172395334283     -1.36170839082928
  N   -2.01712965479976     -1.25731565041353     -1.32142212407670
  C   -0.73672128913232     -1.57725371107510      0.72974909720152
  C   -2.00648681431636     -1.56229935249934      1.55373152386613
  H   0.11783118089240     -1.20571642296154      1.30696287188877
  H   -0.51301619221970     -2.61348308943115      0.44707671445575
  C   -3.30704516175724     -1.37629621470565     -0.61374223754978
  C   -3.13009585142749     -2.12431139395006      0.70924164973317
  H   -2.23846194973857     -0.53965692851487      1.87254084386654
  H   -1.88213327345585     -2.15224107699038      2.47027582308827
  H   -2.89219659258944     -3.17007580261468      0.47492008216054
  H   -4.07551338866352     -2.12457788201583      1.26215257408389
  H   0.31816646730923     -2.08311124971632     -1.73922045030877
  H   1.26412616977327     -1.01123232914455     -0.69335863940705
  H   -0.16191981467495     -0.23919381707685     -3.25126576021757
  H   1.61209249087683     -0.37577440197596     -3.03570239390861
  H   -0.04272187837360      0.89475229254287      0.54791601798717
  H   -1.77584294726431      1.02327481463278      0.31084160018821
  H   0.85728809422089      2.01011892022031     -2.93210650898509
  H   1.55144561055739      1.48659894532387     -1.39882792868609
  H   -1.42568253128281      1.58433659018146     -2.06154025922787
  H   -0.55290312238839      2.72848922640157     -0.99832330892677
  C   -4.18427436547932     -2.23144656616980     -1.53388143981431
  C   -4.00127251311802     -0.00241916283229     -0.41738145520315
  C   -5.59753082971026     -2.46897079930912     -1.00537853774034
  H   -3.66671336061649     -3.18185689528248     -1.69806992329766
  H   -4.18803929074336     -1.71365343244847     -2.49509499794502
  C   -5.46917905340246      0.03246444758799     -0.83325619111351
  H   -3.44298148772754      0.68518776019917     -1.05983834052286
  H   -3.91748828821659      0.31725975619998      0.62917689385719
  C   -6.20894321392531     -1.21044776949276     -0.36823809572200
  H   -5.60065515147529     -3.28658910816220     -0.27546642443486
  H   -6.22995817466741     -2.80693090336132     -1.83443713961320
  H   -5.52714809128362      0.09850248905569     -1.92536340081464
  H   -5.95160848530048      0.93657351522114     -0.44145861098637
  H   -6.13591140783680     -1.26923234153026      0.72471623149841
  H   -7.27859773011167     -1.14300389315527     -0.59836384049845
  O   -2.21837782013765     -0.50434059220998     -2.47459661347128
