38
Coordinates from ORCA-job input
  C   -1.60807010694776      0.72997206229945     -2.35696777277740
  C   -1.75550033364774      0.36225670663138     -0.88871228235238
  N   -0.34537426398047      0.99610552118734     -2.84306390596946
  C   0.75285389691285      1.27776635913114     -1.93125349567030
  C   0.70226703677067      0.44227752401011     -0.67022997515240
  N   -0.59232594553426      0.69085887511429     -0.04590333784349
  C   -2.91993262495029      1.16460825056500     -0.30629951570537
  H   -2.69602791501209      2.23276984972104     -0.35604204076887
  H   -2.99806582659463      0.87756426954280      0.74323608855448
  H   -3.84933772649151      0.96055387974867     -0.83975033478999
  C   -2.13942695203283     -1.13323563107721     -0.84952174984061
  H   -1.56653638603065     -1.73779807598357     -1.55509554217141
  H   -3.19944129858450     -1.26350696375333     -1.07211485856666
  H   -1.90541537239630     -1.44026262779239      0.17535133194429
  C   1.75189360695027      0.98960363471994      0.28978368592835
  H   1.53097245893363      2.03527238163755      0.51996132906896
  H   2.75865461675050      0.90928115901735     -0.13563162025790
  H   1.68202124970767      0.42297296656620      1.21793232129806
  C   1.01396619250382     -1.03462124684312     -0.94566592028988
  H   0.52401618188059     -1.39718047156976     -1.85159688568831
  H   0.64252730839383     -1.58991944274596     -0.07981445134516
  H   2.09025059143907     -1.20529978353974     -1.05176543778353
  O   -0.68535097449706      0.03885715625979      1.16580932434285
  O   -2.57951093471023      0.72575891991342     -3.09501500812099
  C   -0.14226365952728      1.26305333265235     -4.20870784613745
  C   -0.80630753566018      0.53995554783457     -5.20088946413727
  C   0.77353289122923      2.23335831584921     -4.61316349005422
  C   -0.55916731355735      0.78613774222257     -6.53901210221766
  C   1.02728363617949      2.47691124207422     -5.95469271335712
  C   0.35766192619938      1.75479802215374     -6.92632163955863
  O   0.62793437681209      2.02219595447337     -8.24074211238798
  H   1.74158397346681      3.23494626579557     -6.25367877401718
  H   -1.52644249935497     -0.21067616839586     -4.91327176774664
  H   -1.08708723047876      0.20856038534359     -7.29400310531119
  H   1.29688545338596      2.81867017502114     -3.86843075920284
  H   1.68486252315712      1.07716380622993     -2.46673734655318
  H   0.07852347204716      1.44815467493889     -8.77996940532196
  H   0.73975350726877      2.33589543104631     -1.64009942003943
