39
Coordinates from ORCA-job input
  N   1.19342466142278     -0.44727371187048     -0.16516107576534
  C   0.17575530308432      0.34507519288201      0.54854879289986
  C   0.91412977809307     -1.86902710137790     -0.39438360765854
  C   -1.19863016727222      0.16053218024547     -0.09168013453946
  C   0.59457057783077      1.80051677009376      0.34858891568768
  C   0.12648213126763      0.07718339410946      2.06113417779351
  C   -1.56068896272031     -1.31483105542099     -0.24071399133640
  H   -1.18194069575421      0.61898826464234     -1.08829698470614
  H   -1.95530582664569      0.68323069134738      0.50182910438037
  C   -0.46514454509161     -1.98186373330388     -1.05411784530938
  H   -0.36634701519917     -1.47739536371286     -2.02912930502030
  H   -0.69481319932313     -3.03578430322049     -1.24390353475720
  O   2.42145019219167     -0.27199431574397      0.46119753116275
  H   0.65784550154461      2.01800696135640     -0.72122552732998
  H   1.58738674490673      1.92996847465372      0.77947818142394
  H   -0.12128560463377      2.48363017474459      0.81890611768099
  H   -0.52276872982403     -0.75926511417129      2.33041557042167
  H   -0.23146707146663      0.95601470281971      2.60629637643610
  H   1.15753879847338     -0.13824573181408      2.35900313717641
  C   0.96999123015706     -2.82415145303795      0.82499991716676
  C   1.92001783134591     -2.38664421801262     -1.44041374256247
  C   2.37394097250120     -3.08532693310281      1.35439939539367
  H   0.52838380159979     -3.78365210005899      0.51221339998903
  H   0.34154799013340     -2.44587888058308      1.63127458936157
  C   3.31995777862490     -2.66552749557929     -0.91695349385253
  H   1.95732484675453     -1.64024552829061     -2.24068625712005
  H   1.50800513793331     -3.31425008870544     -1.86853054779731
  C   3.28079756264148     -3.62699349815997      0.26051930813693
  H   2.32416708232982     -3.79404203835069      2.19227693712965
  H   2.77294006716019     -2.13088340023867      1.70498831023554
  H   2.90880279326851     -4.60851431440735     -0.07381988437809
  H   4.29160192456321     -3.79242630381993      0.65188540024616
  H   3.73340384769655     -1.70954763643103     -0.58750658804297
  H   3.93909067972042     -3.07715299327606     -1.72558197732872
  C   -2.94387942658321     -1.44192645804566     -0.82679570900341
  H   -1.62288954453172     -1.77094742400197      0.74916175170353
  O   -3.95409023573743     -1.54903210688117     -0.18726842708767
  O   -3.01772636611714     -1.38669828063360     -2.17656077800269
  H   -2.11620984434502     -1.33534522464189     -2.52083750282744
