40
Coordinates from ORCA-job input
  C   -3.55103273213515      1.95095560161925     -0.04397922702331
  C   -4.94447943370155      1.96582584860441     -0.22250585361526
  C   -5.64676340671124      0.79464345007208     -0.30587908202070
  C   -2.86309446467957      0.76792247499530      0.03940117001320
  C   -4.97920648225068     -0.44472470315722     -0.21376830949296
  C   -3.56439630421092     -0.45350849694237     -0.04454128943146
  C   -5.66586312723991     -1.67578651960755     -0.27116722362641
  C   -2.87647786596989     -1.68166241792385      0.06239965411585
  C   -4.98041299525191     -2.85351557541268     -0.15061182179566
  C   -3.58556014192064     -2.85591151177827      0.02156797982754
  H   -5.46370210222262      2.91643554633769     -0.28602824121610
  H   -6.72455773323217      0.80071620502336     -0.43611956568544
  H   -3.00582558252049      2.88213111409642      0.05154378680261
  H   -6.74340902069088     -1.66960235147962     -0.40340224745027
  H   -5.51373938000991     -3.79791599085887     -0.18481855447540
  H   -3.05310629724719     -3.79109013048299      0.13939734298544
  C   -1.36244791164330      0.76554911237060      0.20184020984188
  C   -1.36986764165313     -1.70351605831138      0.18485970315450
  N   -0.85066530912038     -0.47546398764844      0.71535717919921
  C   -0.71706168068251     -2.13382978131293     -1.12816141896136
  O   -1.04331505118625     -2.79095652713838      1.09249984705167
  O   0.51420500091579     -0.48494488270184      0.75484439034372
  O   -0.98528440283292      1.82733074230853      1.11388445626244
  C   -0.67970465269626      1.20117667542685     -1.09443120998204
  C   -1.30439466332678      1.78144600811533      2.41396209417036
  C   -2.08593395962255      0.95068890911451      3.09868983299636
  H   -2.20367818423674      1.13029492062575      4.16003407771518
  H   -2.56692205692665      0.08682052576875      2.66781412323838
  H   -0.81870910715785      2.61029414818603      2.92409812853213
  C   -0.76531780813342     -2.49925372793354      2.37385917711343
  C   -0.85958301216818     -3.42932514948097      3.32497334777809
  H   -0.41233321765933     -1.48845991083923      2.54717589618289
  H   -1.20453965884685     -4.43437728974825      3.10901455912993
  H   -0.55892289133545     -3.18898701021072      4.33577811817222
  H   -1.09088484389685      0.64985909396938     -1.94131761511405
  H   0.37809700300851      0.96214528526884     -0.96479449507983
  H   -0.82448258361038      2.26915410754955     -1.26407362902286
  H   -1.15710336538524     -1.59813826160773     -1.97159469963900
  H   -0.84768946675339     -3.20558102763444     -1.28506539733565
  H   0.34116653494494     -1.88260845724126     -1.02627519365928
