28
Coordinates from ORCA-job input
  C   -3.74645112148181      1.90104870042040      0.09601463112259
  C   -5.14493052363970      1.75484983874770      0.05058960744724
  C   -5.72148927906032      0.51402303132701      0.01660097306119
  C   -2.92338196689541      0.80247655240208      0.11428949918614
  C   -4.91294968183144     -0.64381877919935      0.02667907673768
  C   -3.50099607094349     -0.48988347527964      0.07841396537859
  C   -5.45318945789676     -1.94849360180098     -0.01587731639306
  C   -2.66291753682365     -1.63032318553228      0.08897771949861
  C   -4.62631878062495     -3.03986125866644     -0.01403973708345
  C   -3.22928198472425     -2.87979823409335      0.03432484879896
  H   -5.77109750067783      2.64177182260606      0.03842574788684
  H   -6.80095454463563      0.40241596013979     -0.02286650829947
  H   -3.29532212887808      2.88489803595398      0.09600705803702
  H   -6.53157643380275     -2.06922537877916     -0.05551319124147
  H   -5.04883122288838     -4.03915825834394     -0.05161892148265
  H   -2.58587148814544     -3.75426879391626      0.02691295236239
  C   -1.42105173395056      0.94174062394611      0.18385837586769
  C   -1.19335147820107     -1.39677215242829      0.17311154141227
  N   -0.77084031092391     -0.16775878413278     -0.46290263394869
  H   -0.63474527868214     -2.20653328111125     -0.30380741678396
  H   -0.87064960921874     -1.38820841457404      1.23937941288139
  O   -1.09369070787125      2.17709493834955     -0.40120045957033
  O   0.59238431512091     -0.07254864262642     -0.30766223866580
  C   0.13262555594356      2.72138104154665      0.03073835623439
  H   0.92816897819410      1.98397662342081     -0.10534824849074
  H   0.07856879006557      3.01540254450879      1.09153937074938
  H   0.29988056034606      3.61869516797715     -0.57264045996057
  H   -1.09346935787253      0.97623735913808      1.25624399525783
