44
Coordinates from ORCA-job input
  C   0.07300314608369      0.56558178069309      2.01807533138690
  C   1.04891615797847      0.25465468371970      2.95030026673544
  C   -0.48870723194028     -0.43928446690991      1.23540122536239
  C   -0.06457034799556     -1.74409970348395      1.41225382554614
  C   1.49227109064512     -1.06143168339266      3.12174948318858
  C   0.91432298132230     -2.06701816676279      2.35604331377903
  C   -0.45298144707480     -2.96519357572708      0.63680740037560
  C   1.21980138147433     -3.53753879269149      2.27491296061099
  N   0.02635134194808     -4.02228373718848      1.54232661372978
  C   0.21475631612828     -3.01506418168883     -0.74895650767249
  C   -1.95684439967632     -3.14760303486362      0.47079812299681
  C   1.23617324602774     -4.28901946566946      3.60070815689132
  C   2.53322094579729     -3.82100450713493      1.52823505288999
  H   -1.24249574802373     -0.20293469616456      0.49118630439238
  H   -0.24656036128101      1.59617515091678      1.89670945534998
  H   1.48689200133772      1.04600211510521      3.55015545560608
  N   2.51992245231367     -1.36444387950877      4.07846693651992
  H   -2.44518806924897     -3.08185706357346      1.44532638740040
  H   -2.12532222153159     -4.14925138804309      0.06785580755958
  H   -2.39134174013500     -2.40603776998397     -0.20878391210073
  H   1.20571761070137     -2.55755626885964     -0.74219740689431
  H   -0.38823427821312     -2.52076043519186     -1.51624214638499
  H   0.31771140763190     -4.08439833611270     -0.97006837519302
  H   0.34145775005449     -4.04523090890147      4.17871485312192
  H   2.13105561326174     -4.07126392019411      4.18716842251905
  H   1.19890644631822     -5.35354174231519      3.35517613125524
  H   2.73245727639394     -3.08069771879287      0.75085059867937
  H   2.38274030717256     -4.80026869292656      1.05810641970145
  H   3.38748873378415     -3.84476037405155      2.20954546183036
  O   0.17314144719490     -5.24110692747787      0.96354115577377
  C   3.69730167759169     -0.52683287681868      3.97344998714202
  C   1.98656191282091     -1.43486501360660      5.42777814548480
  C   4.32134479205640     -0.57958393666131      2.59383760076198
  H   4.42557472956563     -0.88873195009399      4.70431547114339
  H   3.48820047298226      0.52561805471098      4.24931106824646
  C   2.90224554466656     -2.14253776108580      6.40996398659985
  H   1.04410391234388     -1.98157716936493      5.36587611475457
  H   1.73920811612138     -0.42624156122102      5.81394694009154
  H   3.18158828387586     -3.12525069582647      6.02480352496505
  H   2.38641095348498     -2.28023635814136      7.36392408374381
  H   3.81658374333599     -1.58007249653929      6.61219121924515
  H   4.56198509421071     -1.60957713850416      2.32543091155036
  H   5.23742086062093      0.01680443249735      2.56913801152082
  H   3.63795809787298     -0.19177782216825      1.83662613979279
