46
Coordinates from ORCA-job input
  N   1.15409879087063     -0.43197278958708     -0.22990036588307
  C   0.14611180332657      0.43160715568299      0.40885422109890
  C   0.81421427091339     -1.84615746928736     -0.42856756233824
  C   -1.21231737515861      0.27127967685845     -0.26794861824198
  C   0.63413602452178      1.85868599743621      0.16345651712096
  C   0.03807319074164      0.23282396006554      1.93023315221882
  C   -1.63779201017071     -1.18915852946986     -0.37412266920784
  H   -1.15557712594620      0.68029429410515     -1.28435003687548
  H   -1.96281411145413      0.85639648721994      0.27614952839729
  C   -0.54670517187387     -1.92173792634825     -1.12955253161792
  H   -0.42418116388433     -1.46220646585890     -2.11748955067121
  H   -0.81758910730109     -2.97216929881487     -1.28633239750507
  O   2.36395932734840     -0.28767446827183      0.44225453628258
  H   0.74068273251001      2.02491738484450     -0.91201018451913
  H   1.61750466144430      1.96488444235455      0.62224223305498
  H   -0.06610772119439      2.59232032798336      0.57894467869719
  H   -0.64809618208764     -0.57034943779029      2.21123525884238
  H   -0.30455342764645      1.14627100269185      2.42734495332376
  H   1.05126416350630     -0.00674736069319      2.26965865028057
  C   0.79666356996171     -2.76146147051923      0.82307364452427
  C   1.83105939388621     -2.43946852328649     -1.42244954554202
  C   2.17189430771258     -3.05885696244260      1.40668022496779
  H   0.32750434959319     -3.71328592336816      0.52647073384529
  H   0.15817524780255     -2.33448085575421      1.59743276284308
  C   3.20265552162158     -2.75205103981412     -0.84536364590174
  H   1.92087436685516     -1.72488612620704     -2.24698950448546
  H   1.39602890382524     -3.36532008370968     -1.83143346323362
  C   3.08973169669320     -3.67198437065364      0.36037377902039
  H   2.06947202604062     -3.73583252482436      2.26641358250482
  H   2.59681601394087     -2.10769980083052      1.73550333674007
  H   2.68774921460153     -4.64859355041177      0.04607303235915
  H   4.08093705534203     -3.86467420478444      0.78863163423418
  H   3.63894064843427     -1.80096627987763     -0.53034333283033
  H   3.83318417760164     -3.21139696170982     -1.61911770693568
  C   -3.01459295425929     -1.30598967978285     -0.96876830491523
  H   -1.69777294915955     -1.60198498047464      0.63947668153429
  C   -3.23342857217371     -1.55518992500709     -2.32128709970413
  C   -4.13380607080375     -1.12208430632186     -0.15625407655177
  C   -4.51892724316372     -1.61523321728444     -2.84216323114976
  C   -5.41938194361133     -1.18122617711381     -0.66880078653539
  C   -5.61967943053693     -1.42858822086726     -2.02043512418154
  H   -4.65983224871901     -1.81230398884078     -3.89991189815330
  H   -6.62397496462489     -1.47854314647185     -2.42674467521096
  H   -3.98247843890018     -0.92876156787169      0.90165768764431
  H   -6.26993931576093     -1.03672653106102     -0.01066241097923
  H   -2.38392393066463     -1.70847656382977     -2.97564210636500
