34
Coordinates from ORCA-job input
  C   -3.51265429821458      1.98676972236638      0.36417011001342
  C   -4.88122435641676      2.02215458314985      0.05488354445890
  C   -5.58036811407304      0.86449640697785     -0.15672477377466
  C   -2.84183672194450      0.79484361419941      0.45834043781622
  C   -4.92521854158403     -0.38288759099800     -0.09380785505969
  C   -3.53225826121364     -0.41530838629974      0.20039665714135
  C   -5.60545327349482     -1.59918269475138     -0.32370404962220
  C   -2.84732924437975     -1.65864026134772      0.21077910200803
  C   -4.93254557893341     -2.78923966535904     -0.27841538744035
  C   -3.55063162682120     -2.81448007767969     -0.01543237255566
  H   -5.38943376727159      2.97955856182704      0.00378656976271
  H   -6.64312424557202      0.88843709117116     -0.37798783823040
  H   -2.98433896741759      2.90706484194794      0.57699425086229
  H   -6.66964711255048     -1.57075948298830     -0.53724767578884
  H   -5.46181658748741     -3.72084230847550     -0.45174894473318
  H   -3.02458745568864     -3.76414628713199      0.00490794538133
  C   -1.37316938031971      0.71668862161731      0.73690807808140
  C   -1.36177489139403     -1.66535897823433      0.40959278149376
  N   -0.97240001824676     -0.56860473602687      1.28070106572426
  C   -0.62178321408255     -1.68248830848030     -0.93426949179959
  H   -1.07806321066363     -2.57483004963572      0.95231951702559
  O   0.40785067537476     -0.53926446654600      1.43366559354729
  N   -0.78578257305232      1.69081271792001      1.64515578524006
  H   -0.83814136315870      0.90022877699238     -0.21993604535918
  C   -1.31761688224516      2.08127512823807      2.83414747795544
  H   0.15382810058170      1.26299078471460      1.74836703989585
  O   -2.49964451860675      2.22016720660792      3.09493592348550
  C   -0.25049157523896      2.39816258374241      3.86510382934076
  H   0.56145745008776      2.98769482386885      3.43387602637190
  H   0.17722147974317      1.45406479908700      4.21431427886236
  H   -0.69942341180847      2.93091055255401      4.70165709889703
  H   -1.01209467035128     -0.92691738113856     -1.62206045226744
  H   -0.71458120910675     -2.65760843772974     -1.41974048314586
  H   0.42545736555130     -1.46277170415935     -0.71013774358845
