35
Coordinates from ORCA-job input
  C   0.39712551536892      0.23862045182204      1.36885724380963
  C   1.24297054505230      0.11346578526238      2.44636134315069
  C   -0.23719538968691     -0.88645687226073      0.83025668785320
  C   -0.02425282426953     -2.12271412928645      1.43822654661979
  C   1.50758101756252     -1.12883840728637      3.03102380568106
  C   0.83303332354046     -2.25190981974045      2.52927922288271
  C   -0.57444562133083     -3.46311321467787      1.04114198378755
  C   0.83767717939867     -3.69521599985981      2.98454330553460
  N   -0.36984394786961     -4.21447504995798      2.29216510726674
  C   0.17803954227907     -4.06121377932756     -0.15609931956852
  C   -2.07993984573031     -3.53718213549584      0.77767568671873
  C   0.56755850625131     -3.90690162765251      4.47267091183675
  C   2.08660414552458     -4.49355636688310      2.55015083074856
  H   0.23333040978721      1.21237131040837      0.91577172392021
  H   -2.62964747107703     -2.91974913747488      1.49137367645549
  H   -2.35395024500138     -4.58267427332696      0.94082030732873
  H   -2.36998591819046     -3.27145656978750     -0.24709824294008
  H   1.24950538902943     -3.86407121726236     -0.09385510120073
  H   -0.18732026445485     -3.66834489313964     -1.10906920416868
  H   0.01933304914873     -5.14275807893824     -0.09805395238374
  H   -0.28909808187562     -3.30307782693482      4.77686700067806
  H   1.41997672916503     -3.67865862198164      5.11617374739380
  H   0.30025535212359     -4.96058143352461      4.58475172013591
  H   2.64453147929768     -4.02262738112346      1.73685506372497
  H   1.63235975456831     -5.43857761559990      2.19577403237017
  H   2.77130868099369     -4.74229957352821      3.36927789072692
  O   -0.38245289002879     -5.56199310230345      2.14138040871857
  H   1.74613308427638      0.98086964797510      2.85626844105986
  N   -1.01501678521646     -0.76272198107631     -0.31359794825782
  C   2.53560824809042     -1.11491019220146      4.09925987484248
  H   -1.42996838792172      0.14720561367056     -0.43362088644120
  H   -1.68279452179896     -1.50721458469071     -0.43466169012385
  O   2.80111804082628     -0.14086404595027      4.76130586209744
  O   3.24882431982194     -2.23822660399172      4.27722740651072
  H   2.94152788234590     -2.92637827387346      3.66461651323118
