39
Coordinates from ORCA-job input
  C   0.78305033695075      0.47091985683463      1.62405948595784
  C   -0.10818274851458     -0.29274058055015      0.87285743358863
  C   2.09921763646871     -0.23046970089691      1.67899514569511
  C   0.59971332105872     -1.54371456667595      0.38719473544524
  N   2.01309140527829     -1.15936542141771      0.57623916942723
  C   0.34904094982930     -1.79574784889065     -1.11322965566726
  C   0.17468697720944     -2.71695573725253      1.30519476588221
  C   3.35525939075853      0.62563530965748      1.57524637935160
  C   0.38568424348969      1.64510337591446      2.23966366023675
  C   -1.43549689711428      0.11175435628175      0.73112439576263
  C   -0.93387756555967      2.05937207038445      2.10119596130136
  C   -1.82405969167314      1.29933603955662      1.35856892560568
  O   2.88536195303293     -2.20520268031653      0.73087212653374
  C   3.40390788375346      1.48186062740852      0.32220570953007
  H   2.59347332173918      2.21713563949308      0.30815117570948
  H   3.28448156517747      0.84183991073747     -0.55362975424701
  H   4.35318728008802      2.02142074863913      0.24322676656658
  H   4.18678129147000     -0.08527092882163      1.57547386965381
  H   3.45050312465885      1.24560588988944      2.47609568149171
  C   1.45921686447251     -2.52576852729435     -1.85830258776239
  H   1.33654708191020     -2.38617865323699     -2.93897571803305
  H   1.45764004756132     -3.59736690367533     -1.65508328109524
  H   2.43026333964697     -2.14931817617319     -1.53411693054425
  H   0.22812734954576     -0.80871820570471     -1.57405254802678
  H   -0.60445075601849     -2.32231562914224     -1.25017863321456
  C   0.56263292819063     -4.11268497991862      0.84784387532643
  H   -0.90956059920583     -2.66638568911280      1.46566389839324
  H   0.64271879182360     -2.52790147297987      2.27706404753249
  H   0.03800839284429     -4.40004359098596     -0.06905979161891
  H   0.30698267624102     -4.85110805595331      1.61696645861377
  H   1.63854407100059     -4.12615243678879      0.67039747949951
  C   -2.45130799572869     -0.66085320087734     -0.05902024505447
  H   1.09135705249207      2.22808733418663      2.82316742602230
  H   -1.27389647085610      2.97360118974736      2.57784598574696
  H   -2.85635915079526      1.62592136891384      1.26426861118479
  H   -3.45701883399907     -0.28218124871653      0.13881114217119
  H   -2.43255048886014     -1.72499507564239      0.18455705975696
  H   -2.26640634551341     -0.58165234843628     -1.13379016744780
  H   2.17510826714632     -0.79292205818405      2.64011794072440
