33
Coordinates from ORCA-job input
  C   0.48122219580833      0.12193459144362      1.18003067912141
  C   1.34249092066284     -0.02004631088476      2.24829882082995
  C   -0.23388264530786     -0.97844905302541      0.66174057394759
  C   -0.07429227659350     -2.22681091005745      1.27549269496261
  C   1.49856810843908     -1.26451630167986      2.85714829913338
  C   0.78223498162174     -2.34470640981744      2.37108487432296
  C   -0.66692151248183     -3.57152610424057      0.94704437502807
  C   0.84077224844733     -3.76090058278443      2.84332388209515
  N   -0.37043902181466     -4.27974127726673      2.20779525902078
  C   -0.01671416491453     -4.23440361426206     -0.27822292976784
  C   -2.18483478069498     -3.58943849592310      0.78629374953454
  C   0.68733371010168     -3.92018489793245      4.35293813500538
  C   2.12149668359950     -4.49060524179606      2.39492345703397
  H   0.41206844264353      1.08583690250797      0.68423516595734
  H   -2.65175293464091     -3.03188330472507      1.60222262897241
  H   -2.49442274661136     -4.63389452633556      0.86914178236602
  H   -2.50662282708466     -3.18450778087072     -0.17386719506419
  H   1.05757736580901     -4.04116461792618     -0.31401738080966
  H   -0.46152563117360     -3.87842725524029     -1.20702506358833
  H   -0.17228794600332     -5.30987425218113     -0.15623291706690
  H   -0.19789606915368     -3.37990678896964      4.69458729891008
  H   1.56819614003969     -3.55938299628213      4.89420323109081
  H   0.54663625614118     -4.98277065541289      4.56363931823581
  H   2.45275415020630     -4.16290208710175      1.40796579016522
  H   1.84953648735811     -5.54999781649550      2.34101791779913
  H   2.94628435281437     -4.35303343152147      3.09972987483271
  O   -0.49234297331976     -5.60974265260713      2.18241990263635
  H   1.90590846325919      0.83765222929133      2.60102968237438
  C   -1.11158328660902     -0.74801207012121     -0.50717718927274
  H   2.17103158416615     -1.38843129058064      3.69917441773197
  O   -1.77086487317366      0.44972595884342     -0.48389259592711
  H   -1.63224546096260      0.84153235374231      0.38561589024027
  O   -1.27160294057807     -1.47184130978691     -1.45126242985161
