40
Coordinates from ORCA-job input
  C   0.74284182796533      0.45787910348690      1.56379041150108
  C   -0.11430073254825     -0.31529912468856      0.78137612840266
  C   2.05668387025507     -0.24578273155530      1.66144647819307
  C   0.59927630311524     -1.56037250903216      0.31880509153145
  N   2.00466174499910     -1.16692644006920      0.54501141226000
  C   0.36201285711128     -1.78891084180540     -1.18432273666245
  C   0.14291720147873     -2.73704909927479      1.21580016174106
  C   3.31561112243227      0.60947076666104      1.60947881754208
  C   0.30820897030725      1.62960549542864      2.14815274340220
  C   -1.41342570701067      0.09583663707425      0.57983682247796
  C   -1.00871400620496      2.04307898214670      1.94025332566483
  C   -1.87061391369691      1.28458450716311      1.15903764244690
  O   2.88633232489245     -2.20155795484150      0.70896783579435
  C   3.42726790126101      1.44908199377318      0.34937411881876
  H   2.60069893363153      2.16174584974389      0.26897644139869
  H   3.38508062523289      0.79500196195662     -0.52281460867445
  H   4.36531342966690      2.01321646982475      0.32874664374055
  H   4.14888153870952     -0.09722869799148      1.66136731981272
  H   3.36088520148292      1.24149198623134      2.50581881660589
  C   1.43480845426627     -2.58686996685242     -1.91488351025571
  H   1.36902282227881     -2.40687573309541     -2.99408499124729
  H   1.34231625447888     -3.66109337542819     -1.74953064924192
  H   2.41795598754443     -2.29409776713613     -1.54031281372345
  H   0.31990371073091     -0.79194243051645     -1.63564824235480
  H   -0.63053680624106     -2.24029393755323     -1.33415363364597
  C   0.56994282247848     -4.13161785689087      0.78889341829866
  H   -0.94971383115370     -2.69346455609037      1.30861361890899
  H   0.55033330453411     -2.53911139015302      2.21337898854055
  H   0.07295770740342     -4.44136524157479     -0.13570964141940
  H   0.30681572501873     -4.86303543675661      1.56211571824827
  H   1.64987690908504     -4.13046790086664      0.63760703771519
  H   -2.09361018762643     -0.49339883730595     -0.02769287964139
  H   0.96116500688578      2.24241444159342      2.76044282499150
  O   -1.36570298472827      3.21819650263880      2.54887546793348
  H   -2.89290425453850      1.59852345863333      0.99186364016870
  C   -2.68059958405221      3.65505642925168      2.37337255239671
  H   -2.77633770773794      4.58712462153444      2.93148586122063
  H   -3.40736513727368      2.92943625097272      2.76073907270154
  H   -2.91095774265240      3.84547849616550      1.31725306941347
  H   2.09766003821862     -0.81580212480183      2.62124222499485
