50
Coordinates from ORCA-job input
  C   -1.35860797443729     -0.00769385968304      0.20959552261450
  C   -0.08455208710818      0.75531743655532      0.57201542808026
  C   -0.12677412016644     -1.89610057236001     -0.80629231845575
  C   1.23758913676797     -1.24186603373496     -0.63552992504594
  C   -1.25833608944507     -0.91200696557100     -1.00395229858889
  H   -2.17032143989197      0.71453877763500      0.09187381599428
  H   -1.63673247057425     -0.63925140258609      1.05908031973018
  H   -0.34410409256324     -2.48413623272128      0.08910709925293
  H   -0.07615769873467     -2.60405951857470     -1.63502157852587
  H   -1.12086217387244     -0.33956930482593     -1.92022653416175
  H   -2.20009478247460     -1.45662331207987     -1.11903767306653
  N   1.12744960030916     -0.09240563142638      0.31547625144365
  C   -0.08478915115430      1.06738318304714      2.10509051635085
  C   0.10675489954250      2.08905233489203     -0.24585058366163
  C   1.84009204121060     -0.66956600494904     -1.95151771998137
  C   2.25737622575982     -2.25044027170632     -0.03561786967627
  O   2.22572141928834      0.42661078006301      0.67104249361199
  C   0.36991031469550     -0.09135087830895      2.97948561493845
  H   -0.22771551994612     -0.99020634409174      2.79998661380337
  H   0.23508751771164      0.17801638913370      4.03010024223155
  H   1.42040284985560     -0.32650120456184      2.82380312320630
  C   -0.48964397517165      3.35935624609972      0.35918737292010
  H   -1.58166664806738      3.36591148455641      0.30475140756174
  H   -0.14141897450429      4.21150675895302     -0.22979234449227
  H   -0.19342634273253      3.53770201354682      1.39107759371867
  C   1.80650749560563     -2.92091324528657      1.25461931271561
  H   1.37905208904169     -2.21263197857269      1.95974197445163
  H   2.66490379922198     -3.39440480662011      1.73701631331528
  H   1.07118075917469     -3.70905631447712      1.07055186711466
  C   1.36129831667882     -1.26877564052116     -3.26296719636878
  H   1.52155870414133     -2.34640911900787     -3.31897805383259
  H   1.90494004544625     -0.81471216571840     -4.09499549307216
  H   0.29811625721087     -1.08628591490666     -3.43369470428901
  H   2.92626422502965     -0.76370780661210     -1.87784156600674
  H   1.66703080495053      0.40413041977025     -1.97293860740342
  C   -1.44760571472251      1.52407440550673      2.62943049342347
  H   -2.11777266351152      0.67155669932990      2.76361471631635
  H   -1.95461997354213      2.24393915149611      1.99272735980203
  H   -1.31844863171467      1.98539519986732      3.61128392844235
  H   0.63975192488725      1.87142630897406      2.25224167927291
  C   -0.37792376124941      2.05833862017356     -1.69331849184828
  H   -1.46712708563109      1.97303735711066     -1.74503371672932
  H   0.04819091286705      1.26043847825488     -2.29511725124322
  H   -0.10974216179250      3.00119831466846     -2.17610680155620
  H   1.19199434671070      2.22918184951354     -0.24206719637179
  C   2.67985312888264     -3.33024743692947     -1.02503798632133
  H   3.39361883397614     -3.99992885681094     -0.53969301553349
  H   3.16629158069704     -2.92928553241151     -1.91430412018549
  H   1.83224497347669     -3.94346292256927     -1.34473174976112
  H   3.13421132986816     -1.63966293152260      0.19543373586612
