30
Coordinates from ORCA-job input
  C   -2.37798452513608     -0.10682859543636     -0.52045449583663
  C   -1.42244935007618     -0.83381975563564      0.11572473492352
  S   -2.22486289854898      1.56559728501433     -0.17403931748930
  C   -0.54570336019585     -0.03808380139663      0.89632236253809
  C   -0.85234802201645      1.29503576871219      0.84579085680099
  C   -1.60869930630568     -2.28469599271834     -0.19734300390453
  C   -3.31268623024058     -0.95009456269557     -1.31743078251451
  N   -2.47647608119306     -2.19742325780700     -1.41958536007845
  O   -3.20493928734614     -3.31673309991385     -1.66066234901417
  C   -0.32983209894626     -3.00131677032359     -0.60788643709845
  C   -2.29289595103496     -3.05677827159338      0.93476589741241
  C   -4.65035928707455     -1.19723739980330     -0.61146024049543
  C   -3.56665551011583     -0.46485321351835     -2.73737988166645
  H   -2.97173933807880     -2.42310700587644      1.50876560164428
  H   -1.57220938706664     -3.50693676486236      1.62442090511834
  H   -2.87838346157488     -3.83257274865724      0.42114617640192
  H   0.15685851497706     -2.45331113598775     -1.41728945572329
  H   -0.60175009232260     -3.99304617455421     -0.97811548474039
  H   0.36534239124894     -3.10785077580719      0.23281555611625
  H   -4.54614226355242     -1.18112928281988      0.47483300331747
  H   -4.94542577015486     -2.20712450080002     -0.92662452390153
  H   -5.40903929007673     -0.46330211487801     -0.89897183634507
  H   -2.61521028967769     -0.27984179642839     -3.23939148938116
  H   -4.17605934803321      0.44578387383279     -2.75733807635140
  H   -4.09061049873651     -1.26163352686210     -3.27115972156737
  C   -0.16873293377521      2.42313941494964      1.53853999968509
  H   -0.84077293658341      2.96336170601758      2.21384485457809
  H   0.24241107022506      3.15552279204335      0.83599754035745
  H   0.65979159770765      2.03546330290144      2.13579074517760
  H   0.28469394370494     -0.41947359509570      1.48048422203667
