28
Coordinates from ORCA-job input
  C   -3.18121881546044     -0.77190305456769     -0.71623121662084
  C   -2.21622376067306     -1.69680148761771     -0.23397504550600
  C   -3.08364886164800      0.46090953832269     -0.15791161790050
  C   -1.39609194830015     -1.15349386255327      0.69596632782604
  S   -1.79196198081824      0.50505403216330      1.00093335782727
  C   -2.36787208227928     -3.01521926802417     -0.92161058038952
  C   -4.01957092088721     -1.43568411092861     -1.76383580511249
  N   -3.75795059749926     -2.87039131754657     -1.44420675592095
  O   -4.05489832202325     -3.72821023912441     -2.45187295673209
  C   -1.33712079898363     -3.24403521812417     -2.03599344721252
  C   -2.38303893326922     -4.22280970550755      0.00925907113928
  C   -5.51633420650376     -1.20981598448686     -1.60953770850790
  C   -3.59091132857101     -1.05881223062971     -3.18857045188113
  H   -3.06557751757289     -4.04484102803055      0.84216696518245
  H   -1.38538211033740     -4.47517118286635      0.39630295657328
  H   -2.75320800623086     -5.07337094299743     -0.56911328356291
  H   -1.02339720843496     -2.30792816452477     -2.50013621273349
  H   -1.86244601484243     -3.85725564239655     -2.77982893893696
  H   -0.44444509637503     -3.76598259215624     -1.67664624550133
  H   -5.82538119124772     -1.47065677128643     -0.59563911973352
  H   -6.02862611825778     -1.87460199442872     -2.30955486354831
  H   -5.79644248191004     -0.17224942496115     -1.82225487866635
  H   -2.51986176463814     -0.85957075201528     -3.25388581455969
  H   -4.12642823905341     -0.17791557075725     -3.55435626655449
  H   -3.83011716663298     -1.93642531803752     -3.80077764155354
  O   -0.36570577864925     -1.71792273941161      1.38406166782134
  H   -3.67016619317898      1.34952639017940     -0.33445641639271
  H   -0.37201255572152     -2.65283135768473      1.15178492115762
