27
Coordinates from ORCA-job input
  C   -3.29637747641020      0.07220467277742     -0.53155476397573
  C   -2.20115052127023     -0.28492794506915      0.29993104259361
  C   -3.64186359355230      1.38291451163006     -0.42680253956411
  C   -1.72198461694976      0.75699145984486      1.03003362080591
  S   -2.62267367337467      2.19171101776901      0.70523990546692
  C   -1.85103052233111     -1.72302173074639      0.08818063058925
  C   -3.72826403995334     -1.11071564474088     -1.33791990232065
  N   -3.11508721139671     -2.20378008807860     -0.53495693277585
  O   -2.99918796795199     -3.38105801098314     -1.19451817177009
  C   -0.62935984319540     -1.91383833474327     -0.82312062255339
  C   -1.65066546895762     -2.51908417594708      1.37020654549410
  C   -5.23150555455894     -1.35169224491374     -1.35084406090640
  C   -3.20873599088802     -1.07142862237785     -2.78291079294743
  H   -2.50713537631805     -2.37439653512136      2.03144603158491
  H   -0.73164068953253     -2.22885410786985      1.89131991224562
  H   -1.59560457380662     -3.57640735211263      1.09939720553732
  H   -0.54535039372966     -1.11886639044041     -1.56623211663269
  H   -0.80684289915435     -2.86621254189672     -1.33731786825690
  H   0.30503820712956     -1.95497336223662     -0.25569058578778
  H   -5.61194428793013     -1.35840776389983     -0.32759198117967
  H   -5.40682240981444     -2.33665380984390     -1.79080325074918
  H   -5.76223392563170     -0.59213560585005     -1.93537794030659
  H   -2.23819228068797     -0.57768597039117     -2.85444844289992
  H   -3.90535959930864     -0.56189109123220     -3.45522847686158
  H   -3.09616709150227     -2.12304040320437     -3.07267199540140
  H   -0.90568048524095      0.78132686175239      1.73655356572392
  H   -4.42451771368176      1.92760320792554     -0.93367801515214
