42
Coordinates from ORCA-job input
  C   -3.39799811895254      1.87967453486114      0.03855716833725
  C   -4.80664812776618      1.91058309149140      0.00550603894967
  C   -5.51455153091058      0.72863127253118      0.02281973092141
  C   -2.67251902401794      0.71817209584479      0.09455460196746
  C   -4.80401223971908     -0.50325663657528      0.06748565886053
  C   -3.37454903194371     -0.51182441329865      0.11295446233211
  C   -5.48463699708459     -1.74027120108036      0.05680484431248
  C   -2.67266727706496     -1.74363085912356      0.14385620170575
  C   -4.78845282298973     -2.91907370324434      0.07807690327648
  C   -3.38788840207452     -2.91849950584239      0.12262724999234
  C   -5.48369416579942      3.25201015618030     -0.04898808003628
  C   -7.01402504641591      0.71133771532057     -0.01220834071004
  H   -2.86999423713740      2.82647747091671      0.02109068258342
  H   -6.56704470042788     -1.75809351539239      0.02418168334946
  H   -5.32344067331260     -3.86368799152151      0.06205028964082
  H   -2.85874400041393     -3.86333369612266      0.14289176994383
  C   -1.16615213010327      0.74611397202253      0.08534404485822
  C   -1.16608395368431     -1.76455186314345      0.16254354435775
  N   -0.62275735968132     -0.49226693114770      0.65524038420389
  C   -0.63692338270788     -2.15154333440029     -1.23364255272760
  C   -0.65354560495772     -2.80069335572215      1.17090632959627
  O   0.75121677603074     -0.49660618285035      0.54514896612060
  C   -0.63521269144029      1.84837583426991      1.00899378709054
  C   -0.66099141489122      1.03516169709329     -1.34377815101085
  H   -1.08159763996286      1.74692294432863      2.00082843809968
  H   -0.83243777269513      2.85124622324569      0.62062718674833
  H   0.43970484248059      1.68091500797259      1.08748013429671
  H   -1.21112733524440      0.46714338429757     -2.09540311848345
  H   0.39180712528853      0.73479877289837     -1.34687170105348
  H   -0.75166598866759      2.09686045155712     -1.59088369738047
  H   -1.11545699047887     -2.62725924230381      2.14540054575250
  H   0.42048244911754     -2.62944700702597      1.25460096889280
  H   -0.84731841681380     -3.82863202187006      0.85306179727703
  H   -1.17926705026718     -1.64644225868414     -2.03414026754240
  H   -0.71279077624629     -3.22940227028742     -1.40303087489699
  H   0.41299671956485     -1.83986357049390     -1.23864889777158
  H   -4.73930191814693      4.04965563534424     -0.06094033240150
  H   -6.13327365401318      3.42035846327132      0.81576841803038
  H   -6.10347465388833      3.36504231595259     -0.94406804199503
  H   -7.43019647702293      1.71753224220312     -0.02445419039595
  H   -7.42904974855434      0.19273236593206      0.85839246026959
  H   -7.38906655698327      0.18826391259521     -0.89855604536170
