37
Coordinates from ORCA-job input
  C   -3.57303770859285     -0.55663694798438     -0.80628697379160
  C   -2.58061106688141     -1.17732714926526     -0.11773228175809
  S   -3.87259503325352      1.02498836545306     -0.22657750769949
  C   -2.03481446531310     -0.35894675666623      0.90488920654864
  C   -2.63884625821564      0.87416301766510      0.97039788108750
  C   -2.34369863764081     -2.54139370828782     -0.68482679606276
  C   -4.10737647417253     -1.39362917071910     -1.91730820771082
  N   -3.61705114345792     -2.74001907289976     -1.46032831545884
  O   -3.51122210332677     -3.64353069427752     -2.46745576194835
  C   -1.10731014141592     -2.60187276437782     -1.58520988488085
  C   -2.28091736457906     -3.65216427476636      0.35380995212490
  C   -5.62526024865039     -1.46765005480892     -1.99134418119429
  C   -3.54201096441022     -0.99723611780044     -3.28588711603906
  H   -3.16229494570113     -3.60515898569194      0.99692557811323
  H   -1.37681458920109     -3.58418470321089      0.96644242976633
  H   -2.29430630710776     -4.60676326220185     -0.17825152253358
  H   -0.91606908733015     -1.64723873553986     -2.07924572732487
  H   -1.36112379449011     -3.35100382036956     -2.34813864770745
  H   -0.20969086306451     -2.89303925816387     -1.03254369440999
  H   -6.02901414845410     -1.74877680479222     -1.01703919138468
  H   -5.88440410699532     -2.24695503519275     -2.71216920627323
  H   -6.06666319931550     -0.51728752146893     -2.31247896946288
  H   -2.54129301484743     -0.56939397004514     -3.20482793829834
  H   -4.18515763309828     -0.28189716874516     -3.80667076183572
  H   -3.48197444807358     -1.94405962946648     -3.83946520380464
  O   -1.01043367963983     -0.81801474471796      1.66956235248531
  H   -2.44438411268667      1.69181370759163      1.64526687796368
  C   -0.51758281753194      0.02948750160734      2.68788358867017
  H   -0.45273605661202      1.05257261603582      2.29203251325053
  C   0.87490846718661     -0.46344644348056      3.01371275080028
  C   -1.43109059178934      0.00817894383051      3.90090815158693
  H   1.51045909838259     -0.42661902308287      2.12765225937662
  H   0.83165335736774     -1.49850119002391      3.36125746568763
  H   1.32521242680984      0.14914141760900      3.79847124444579
  H   -2.45036037136033      0.27911292123465      3.62343730295337
  H   -1.07759203050817      0.70948949145302      4.66167509868923
  H   -1.44804594202903     -0.99549097443242      4.33306323602937
