42
Coordinates from ORCA-job input
  C   -3.46292957634508      1.96509577120167     -0.10485826717760
  C   -4.87245766827081      1.90795549762783     -0.13034790913529
  C   -5.55566762530867      0.73354815627270     -0.01908898700155
  C   -2.72440766707917      0.79744056390095      0.04603519679866
  C   -4.84916198412418     -0.47558293848636      0.08503023762576
  C   -3.42233393795995     -0.44504896962851      0.10897645382250
  C   -5.53912201621710     -1.70630668333747      0.13789533156738
  C   -2.73480732693532     -1.69006679037841      0.14551846632915
  C   -4.86421158834448     -2.89267331727399      0.18327563923958
  C   -3.45472231601339     -2.85819745026215      0.17650593189079
  H   -5.41954279858348      2.83972622663497     -0.24440672407464
  H   -6.64119084227373      0.71396458595858     -0.03659653372397
  C   -2.88054839680803      3.34503275862152     -0.24716859749168
  H   -6.62610533125612     -1.69031568863544      0.12771427774361
  C   -5.57762147887373     -4.20891980653653      0.23088384881970
  H   -2.91975160507878     -3.80085225538959      0.19853318074680
  C   -1.20873436783656      0.79446448732961      0.14613462996128
  C   -1.23270788920665     -1.72660720888236      0.08287809288230
  N   -0.69642536847854     -0.49588510119975      0.66169305863974
  C   -0.78048509383038     -1.98788839149712     -1.36936174874599
  C   -0.66611407189385     -2.84580846737799      0.96256556473818
  O   0.67945605630002     -0.50547822416439      0.58677080497964
  C   -0.72354588469245      1.77571119310179      1.22778558066255
  C   -0.55217462110831      1.15311150136009     -1.20398524153844
  H   -1.33303695305824      1.66945588664456      2.12856968901519
  H   -0.72354411166671      2.81725445107392      0.90897690782084
  H   0.29755735972375      1.45716163535144      1.44801762317345
  H   -1.12363099750757      0.78417644506250     -2.05750919073419
  H   0.43010755609057      0.66568617218493     -1.15408222116882
  H   -0.40369036558390      2.22778866712740     -1.33284927554555
  H   -1.08145005531832     -2.77285604187478      1.97040315265988
  H   0.40898061507035     -2.67330762166637      1.01335501010689
  H   -0.86957332247371     -3.83936353489207      0.55441705240447
  H   -1.33074426969490     -1.37309014659280     -2.08350255400289
  H   -0.92457431121378     -3.03641372607690     -1.64605892983941
  H   0.28282285899236     -1.73488345030139     -1.40790795503730
  H   -3.59106715304672      3.98655973434157     -0.77522627566283
  H   -1.94564311412987      3.35095662183422     -0.80150392904563
  H   -2.68733069430167      3.80281212902780      0.72711756506147
  H   -6.66124429410184     -4.07305322520150      0.22284154801663
  H   -5.31352351431138     -4.77029123769103      1.13286001575140
  H   -5.30860183324952     -4.83689220731116     -0.62462052053208
