34
Coordinates from ORCA-job input
  C   -3.55643548736487      1.99949406014888      0.41544430351126
  C   -4.92401568142372      2.02291867643451      0.10164453288974
  C   -5.60198323491733      0.86135959459176     -0.15201499466518
  C   -2.86938619087968      0.81474869165905      0.47499001405268
  C   -4.92717980852166     -0.37669757858634     -0.12315610890098
  C   -3.53707476399701     -0.39882570538662      0.18209919440624
  C   -5.58732349795013     -1.59340188514374     -0.40264354437007
  C   -2.82737512491121     -1.63031389038928      0.17173414123389
  C   -4.89397291611560     -2.77059069161001     -0.39030885104327
  C   -3.51568025660435     -2.78581431828440     -0.10533505787948
  H   -5.44706616312484      2.97333459971051      0.07709396931255
  H   -6.66312444391250      0.87430645746564     -0.38167919182441
  H   -3.04259395588028      2.92064513655756      0.65526331794726
  H   -6.64906175764216     -1.57385284899829     -0.62891463589059
  H   -5.40315222297132     -3.70498432220304     -0.60441204404170
  H   -2.98983165069041     -3.73268155398478     -0.10500003335975
  C   -1.39989000852451      0.73629199705057      0.73148214130392
  C   -1.34007491111433     -1.61885115577535      0.41855437430049
  N   -0.97888098594472     -0.53046549872434      1.30468365144447
  H   -0.82998730208577     -1.45134248315320     -0.55969614311005
  C   -0.79986586275341     -2.91646477166305      0.99016198840166
  O   0.40804505524463     -0.45773061111566      1.41029472194286
  N   -0.78093934334500      1.75163013511072      1.56415052114651
  H   -0.88561928156820      0.84165993136201     -0.25237985673508
  C   -1.26054750138176      2.18470115576516      2.76154273853587
  H   0.16374520774904      1.32487424356106      1.64490235086408
  O   -2.43015933312492      2.31385927614824      3.07727771330150
  C   -0.14835715531013      2.56297075493266      3.72155702588256
  H   0.61032356578928      3.17738553954397      3.23196108009411
  H   0.33937927155965      1.64415645485970      4.05959058636363
  H   -0.56892529047542      3.09319701879393      4.57416042471573
  H   -1.35736005883400     -3.19845851150796      1.88787813063441
  H   0.23810775138621     -2.72444060212859      1.26103862998750
  H   -0.84836666035945     -3.73333729504122      0.26533490954758
