46
Coordinates from ORCA-job input
  C   1.78158956586705     -0.42980552081871      1.33863923946810
  C   2.35518199391897     -0.92973762019109      2.50012772338088
  C   0.72903684027606     -1.10395671754569      0.72522870670457
  C   0.25840823743797     -2.28054500688918      1.28476127493884
  C   1.90478063241993     -2.13373097935404      3.04136737488720
  C   0.84895725138024     -2.79297628913067      2.43804284478496
  C   -0.80022207651412     -3.22112521058659      0.79727920800177
  C   0.21990187811812     -4.10204327827218      2.79845168815584
  N   -1.03469108384481     -4.01336963628838      2.02225901420670
  C   -0.32302782283825     -4.07666542587776     -0.38824542444249
  C   -2.11471231178551     -2.54624841586446      0.42639005674986
  C   -0.15544529204031     -4.22386279161840      4.27006472446455
  C   1.08790125608842     -5.30701477742113      2.39835818750434
  H   -2.45224132208013     -1.91526732892325      1.25113553213112
  H   -2.85720155572674     -3.33163482112395      0.26678806719597
  H   -2.02508892486960     -1.94375627006830     -0.48405934758900
  H   0.74131427858978     -4.31001982052773     -0.32293809893152
  H   -0.51106973206512     -3.59119328877931     -1.35008174631148
  H   -0.89447370130767     -5.00931202415238     -0.31279870037233
  H   -0.75800354984089     -3.36411554877364      4.57078351791169
  H   0.72620512432681     -4.29893642131394      4.91591903137674
  H   -0.76140907588344     -5.12571440455743      4.38431302920287
  H   1.68076525184285     -5.10863495247279      1.50355356014754
  H   0.36947041602806     -6.10676183580467      2.18044505400086
  H   1.76577907395156     -5.61296919009922      3.20008206695333
  O   -1.66509307111927     -5.19306872099167      1.82390473948238
  H   2.15873534351618      0.50116703072293      0.92877895558551
  H   0.28442228541089     -0.70587384999899     -0.18104456517362
  N   3.45903931173558     -0.24481147466718      3.08918361306181
  C   3.54786275861294      0.64714658861960      4.11106612448898
  O   4.64847686244380      1.08617242510184      4.41306899443807
  C   2.29430819426846      1.08001066010646      4.89231756906217
  C   1.81610420752093     -0.08200509878818      5.76780458714300
  C   1.15661265193189      1.54643235757885      3.98322555897925
  C   2.70161506487611      2.23901261829624      5.79778165879656
  H   3.50057693163764      1.94636940893808      6.47863554966139
  H   1.83432462001163      2.55958493651575      6.38156101994012
  H   3.06311374064981      3.08783833357930      5.21441391909241
  H   0.71722720354650      0.73099495067305      3.41219953520462
  H   1.49944807174258      2.31013564418895      3.28005560889297
  H   0.37047027651197      1.98972509538594      4.60133438078522
  H   1.40442914915346     -0.89700049889017      5.17406365668632
  H   1.03049233661655      0.27291050097078      6.44111610817843
  H   2.63364671605725     -0.47182942961943      6.37960602882239
  H   4.36931655476623     -0.42813439537585      2.69224118401516
  H   2.39060543865941     -2.53917950589093      3.92238918833512
