38
Coordinates from ORCA-job input
  C   -2.06323093210504      0.37515868866881     -0.71363000145044
  C   -2.05877370171929     -0.14495852073416      0.70550982479687
  N   -0.86839386251891      0.89968759962937     -1.21738731332307
  C   0.32043429308084      0.29797753142708     -0.78846944614109
  C   0.38814245999851     -0.18149368910707      0.64230787521252
  N   -0.81214192213082      0.18345833908413      1.38638690149179
  C   -3.15398360909118      0.61929795055075      1.45749268991280
  H   -2.93560925226327      1.68989104387890      1.44207730646777
  H   -3.10425843817047      0.27596110872023      2.49138584978284
  H   -4.13540326006963      0.43460791945223      1.01865052460271
  C   -2.42570519231912     -1.63937007179985      0.70921149918170
  H   -1.91515162765726     -2.20144175591286     -0.07454965212080
  H   -3.49988683102630     -1.77950238894085      0.57753828812324
  H   -2.10626200595216     -1.99900366575502      1.69212004752478
  C   1.53361864789319      0.59376439156325      1.30575797918757
  H   1.32787838643049      1.66624113294334      1.26525163652100
  H   2.48813623966699      0.37954514244673      0.82262853988447
  H   1.53702833062274      0.28630393209477      2.35229479744779
  C   0.74030896998915     -1.67856244176754      0.67428546353160
  H   0.18937650505899     -2.25870014692056     -0.06755850075195
  H   0.46133627799528     -2.00288420388532      1.68169549695312
  H   1.80579165112886     -1.83404470028146      0.49828709385193
  O   -0.78670427106117     -0.37520766133864      2.64967726134769
  O   -3.06671772182760      0.34395251586449     -1.39726381447668
  C   -0.88087969001095      1.74626162848486     -2.44436849223383
  C   0.38079745593257      2.61357890060391     -2.48298981707470
  H   1.27847443168156      2.03385810290840     -2.67251696796748
  H   0.50447351684232      3.14333939648962     -1.53481032364637
  H   0.25821242249597      3.35836621354961     -3.27310480693764
  C   -0.97257143378879      0.87846276633236     -3.69491611887991
  H   -0.97750484253949      1.51048940084575     -4.58811667245204
  H   -1.89097355640644      0.29089645008763     -3.67602124047966
  H   -0.11363081522190      0.20817128286764     -3.74527906614442
  C   -2.05689275797049      2.72462866568734     -2.37381249630788
  H   -1.94264592152816      3.45685054431846     -3.17684641973600
  H   -2.04256043429063      3.26081435922102     -1.42137258206662
  H   -3.01666065011094      2.22819586690233     -2.47570801121222
  O   1.26548314096263      0.17916837182030     -1.54152733241936
