27
Coordinates from ORCA-job input
  C   -3.43359351942815      2.05093412544404     -0.20919415149757
  C   -4.83996552125691      2.01717308685451     -0.15123363517850
  C   -5.50837786114652      0.82522967414826     -0.07517260461713
  C   -2.71205576571080      0.88777863122671     -0.19032109087997
  C   -4.79591784002672     -0.39508142257857     -0.03226942544480
  C   -3.37678987662347     -0.35930324690048     -0.08191305823642
  C   -5.44167129309442     -1.64689553351984      0.07148441096954
  C   -2.63167990142692     -1.56547263385290      0.00236004352227
  C   -4.70681285815082     -2.79935613390109      0.13812798058085
  C   -3.30020542150830     -2.75902821498881      0.11127218305881
  H   -5.39751860512690      2.94847948478132     -0.17075257507854
  H   -6.59333106981319      0.79932610117851     -0.03717205323239
  H   -2.90007808826640      2.99221349252634     -0.26493378308131
  H   -6.52673631612267     -1.67713476117901      0.10499980114645
  H   -5.21023530570376     -3.75746434184427      0.22278715510544
  H   -2.71911726760070     -3.67031409886148      0.19017122219059
  C   -1.22595111962840      0.84095643271023     -0.31031198002895
  C   -1.12737522800593     -1.49450590717575     -0.01310311902364
  N   -0.70585963462723     -0.22229586425860      0.53117887060537
  H   -0.76782225184937     -1.56876674560926     -1.06499105841019
  N   -0.51277421275350     -2.59653330460733      0.69858792894311
  O   -0.57826915248984      2.01147581225028      0.05559443803942
  O   0.67562462494162     -0.11438803348514      0.47613029180907
  H   0.28196462094439      1.56844141511320      0.32432677483567
  H   -0.82289990252206     -2.51575064109090      1.66570516734879
  H   0.46660770479075     -2.30674130021900      0.72623181673789
  H   -0.97031893779371      0.60145392783907     -1.37634955018388
