43
Coordinates from ORCA-job input
  C   -3.51853818768192      1.81017486328528     -0.51828343327948
  C   -4.92165598231104      1.83874458755877     -0.47895650174763
  C   -5.63579003977133      0.73169092337188     -0.10823309973702
  C   -2.81265161311008      0.67051488597506     -0.19523326118484
  C   -4.96295419061175     -0.48153315740796      0.14952293642905
  C   -3.54246484772022     -0.51665989997290      0.05257766763159
  C   -5.65537208878492     -1.67265951573984      0.45738914169668
  C   -2.86631336039078     -1.75818074319943      0.11578102206703
  C   -4.97246705443344     -2.84814926114842      0.60792049204324
  C   -3.57998974361820     -2.89358882410883      0.41263293355658
  H   -5.43917329445023      2.76063001831804     -0.72578392946485
  H   -6.71923246754964      0.75897159208450     -0.04383453399590
  H   -2.96774049038669      2.69397753087434     -0.80811247556787
  H   -6.73627830041702     -1.63991227604391      0.55586027959523
  H   -5.50727191798739     -3.76178357438162      0.84754694599941
  H   -3.06775742082294     -3.84558064346733      0.47638454492604
  C   -1.29412502923105      0.72863351184139     -0.01905305117545
  C   -1.41302343324862     -1.76813246785192     -0.25110252649699
  N   -0.72208406861102     -0.57824919093140      0.19645967038735
  H   -1.37293965279066     -1.85288929789814     -1.36175301940396
  C   -0.66341338154789     -2.97538642571387      0.29313149891961
  O   0.60887845637534     -0.61086653559638     -0.12437179243062
  N   -0.99118844202784      1.51648423721157      1.21203805618237
  N   -0.74582369925726      1.49690424185665     -1.14333255955142
  C   -1.29189981018092      0.85692181118612      2.45125894737543
  C   -1.36757255997626      2.89957755981129      1.25397024729743
  H   -1.14981578296366      3.38393303298368      0.30295317366240
  H   -0.78640819238225      3.40244392097411      2.03748860819748
  H   -2.43715214146091      3.06028054526897      1.48759738362663
  H   -0.96089017881643     -0.17759206289048      2.38607557126971
  H   -2.37067220246023      0.87302043715539      2.70264126489246
  H   -0.75655440346649      1.36353551964303      3.26210087689022
  C   -0.92749940589004      0.81741996341151     -2.40214096418545
  C   0.61403402106580      1.98400363420312     -1.02578782021904
  H   -1.96603787794038      0.49983659674301     -2.52459735805702
  H   -0.26795996724437     -0.05987587133850     -2.47738663057222
  H   -0.69323752470626      1.50752773885776     -3.22159328453319
  H   0.85370890942764      2.16236866705498      0.01945158193713
  H   0.70668778382046      2.92665908320494     -1.59122974660602
  H   1.33921678769199      1.25101909513679     -1.39098779213332
  H   -0.83079934947512     -3.07864695680979      1.37003874420062
  H   0.39324977643978     -2.77599242349146      0.11456147778167
  H   -0.96772763109560     -3.89836487001999     -0.20806928622314
