30
Coordinates from ORCA-job input
  C   -1.38125641181800      1.44794556564021      0.22011957239944
  C   0.10493861649381      1.44358330815337     -0.13426351547780
  C   -2.10283661515018      0.20324926120602     -0.24172801239874
  H   -1.86454415266020      2.34016918266961     -0.19367535372317
  H   -1.46969526794666      1.49932865821673      1.31514114546123
  C   -1.40462219321360     -1.00919298108984      0.32803774174930
  H   -2.10343022709617      0.15481057934988     -1.33392578001652
  O   -3.48993307141979      0.23199439072192      0.10803492036860
  C   0.08066345801060     -1.06252918403691     -0.02660278501334
  H   -1.90437652587199     -1.92492520276438     -0.00727327043019
  H   -1.49148157246785     -0.96317072872271      1.42327099077278
  N   0.73421001664829      0.20267628647578      0.34894959637103
  C   0.29870207183333     -1.45444252687018     -1.49669176596619
  C   0.74883267553545     -2.12965883990750      0.83797963033936
  C   0.79195113464437      2.56739334676413      0.63911799383151
  C   0.33596407770323      1.70426544761170     -1.63128871572099
  O   2.06779666465923      0.17350922739568     -0.02216589391430
  H   0.66142612111224      2.40342718576549      1.71254750726036
  H   0.38027724285343      3.54598472624310      0.36627437222305
  H   1.85896994217262      2.52561221657960      0.41733805696803
  H   -0.37088459308798      1.17526832814673     -2.27388486824610
  H   1.35151473824055      1.34600998659047     -1.83169020291771
  H   0.26813181751449      2.77145901186945     -1.86750565416374
  H   0.62684605136832     -1.87123996713608      1.89365561167388
  H   1.81542624863343     -2.12894451145436      0.61026997186032
  H   0.31607722416946     -3.11925799101087      0.65132226343351
  H   -0.39662952705330     -0.96154789497923     -2.17906390268788
  H   0.19818908375930     -2.53539763164472     -1.64035421685630
  H   1.32272670656568     -1.14482924621191     -1.73172714398946
  H   -3.51950373413211      0.27253999642881      1.06842170681003
