43
Coordinates from ORCA-job input
  C   -1.43062952221506     -0.60259705938570      0.04126493177272
  C   -0.14333361102463      0.21413622563016     -0.03647003440775
  C   -0.25898015101764     -2.56999007133649     -0.89130613572162
  C   1.06914392974234     -1.79783101288032     -0.96970757589668
  C   -1.48748807353047     -1.68675710566833     -1.01325111969556
  H   -2.29026445920054      0.07310437313610     -0.04047714122183
  H   -1.47435988876587     -1.06853633645129      1.03321946980954
  H   -0.27696010808319     -3.05647635538946      0.08888497458490
  H   -0.26145416391470     -3.37140689745100     -1.63591039095803
  H   -1.54426380561579     -1.23101884849740     -2.00504186798085
  H   -2.39332574103931     -2.29355493888326     -0.89416443799846
  N   1.01955700720227     -0.69035929931499      0.00999922177367
  C   -0.04798557057427      1.07050352996589      1.22349841473744
  C   -0.13201166570625      1.15083796185973     -1.24929875904985
  C   1.42281296514499     -1.35278453722720     -2.38348756870567
  C   2.14116028972848     -2.77646561346527     -0.48942650876261
  O   2.18213254358156      0.03169411442814      0.02437850251816
  C   0.61929397566045     -1.58961317481202     -3.49775361081640
  H   0.86519691196406      1.66295705883953      1.18750965854274
  H   0.89568822157206      1.50170196949769     -1.37130733146693
  C   2.61861184168640     -0.64605420148080     -2.58059264225336
  H   -0.92246269214288      1.72553016336737      1.30469357164557
  H   0.00010027365917      0.42413839565951      2.10437070983722
  H   -0.79132415684126      2.01067023460040     -1.08841157016267
  H   -0.43809985997701      0.65338741400557     -2.17105540373896
  C   2.94458530368561     -0.14718812444105     -3.83260914659016
  C   0.96218985204086     -1.11538836594615     -4.75691852057335
  C   2.12363660820635     -0.37550978109244     -4.92874268064043
  H   0.31907780976184     -1.32965574881032     -5.60503400267743
  H   2.39485080803462      0.00168755996512     -5.90971713110008
  H   3.24170747309432     -0.48027855489140     -1.71226310221398
  H   3.86439687153679      0.41642624410755     -3.95699571513056
  H   -0.29427412541285     -2.16240739430248     -3.39658649277689
  C   2.72775938429373     -2.64646544101043      0.76721421324285
  C   2.49854843653622     -3.85899513430193     -1.28512474403999
  C   3.64024643529024     -3.59399690238347      1.21139189568159
  C   3.40559607130913     -4.81154043996661     -0.83789908562166
  C   3.97989371541499     -4.68230555263876      0.41751264924026
  H   4.10295045867757     -3.47351896231849      2.18631262127963
  H   4.69710821164357     -5.41705977856587      0.77004304423710
  H   2.48591352581238     -1.76388678219209      1.34394946763769
  H   2.07173738718953     -3.94908566248566     -2.27924649929528
  H   3.66606128259208     -5.65090716747196     -1.47504412704397
