38
Coordinates from ORCA-job input
  C   -3.92257371242028      1.81859439526975      0.23057186923094
  C   -5.31527478306937      1.65638503411919      0.13385556851355
  C   -5.85920915128651      0.41398269101448     -0.04702688757759
  C   -3.07432238907724      0.74294632672475      0.15311905811512
  C   -5.02575206311077     -0.72180072450786     -0.12799001245758
  C   -3.61418469052808     -0.55673436467287     -0.01122394276826
  C   -5.55228458927848     -2.01624180212741     -0.32730435604541
  C   -2.76239439347870     -1.68842684975140     -0.07817959816406
  C   -4.71447236598530     -3.09349799851172     -0.40781998054847
  C   -3.32425288885144     -2.92778482777100     -0.27848646677541
  H   -5.96002036521932      2.52763954746411      0.19711351489242
  H   -6.93378067099605      0.28175794913262     -0.13242374362855
  H   -3.48079407019988      2.79692356793617      0.37746897664503
  H   -6.62764888379936     -2.13770567014841     -0.41695671348881
  H   -5.12039819480552     -4.08804352582961     -0.56487950953843
  H   -2.68370597963086     -3.80001301524790     -0.32629458015372
  C   -1.56762958744509      0.92432104816600      0.16629420247875
  C   -1.27639231203218     -1.50544071392671      0.05983033752702
  N   -0.94117927454584     -0.27118921202708      0.74831633981073
  H   -0.82679621388348     -1.49621393773694     -0.95873371805604
  C   -0.61032404728071     -2.64861565075715      0.81349436905945
  O   0.42727101511877     -0.10883973437729      0.74451547037112
  N   -1.25821340430206      2.09712665872041      0.99087579996577
  C   -1.11041409262624      1.15545205293050     -1.27772716787458
  C   -1.40155223250533      1.81073699787202      2.40356683935689
  C   0.01164009903810      2.75486056793781      0.75499553642906
  H   0.09782356257961      3.07526861911089     -0.28426924997349
  H   0.85957871991964      2.10225251161362      0.99443904352293
  H   0.03920449260692      3.65904647589300      1.37616608936672
  H   -2.35950244542224      1.32326965627672      2.59395683361804
  H   -1.37789232114794      2.75794925137486      2.95571070878080
  H   -0.60108124920652      1.15208216871186      2.76662110943858
  H   -1.59996043226791      0.43920411104496     -1.94126482812999
  H   -0.03033538588954      0.98778444637768     -1.30385289917617
  H   -1.36370553949553      2.16043145618688     -1.62176503547119
  H   -1.11537357643986     -2.81566187259144      1.76966084588700
  H   0.41389229675941     -2.32426397838348      0.99976123436626
  H   -0.61019887979429     -3.57874165551008      0.23899494245149
