40
Coordinates from ORCA-job input
  C   -3.55840068418591      2.08594227241028      0.41281443881708
  C   -4.94007936097173      2.10240261661688      0.17635012546103
  C   -5.61889868276719      0.93387501912261     -0.03666123787101
  C   -2.86013849172150      0.90716858045223      0.44958519619792
  C   -4.93609355450966     -0.30003413234700     -0.02670442332633
  C   -3.53048766482828     -0.31856545597873      0.22443705546907
  C   -5.61000033578832     -1.51425768350251     -0.27452389825737
  C   -2.83272469899169     -1.55689031372877      0.21557299835866
  C   -4.92035190876478     -2.69398859623637     -0.28586902809336
  C   -3.53675573454420     -2.70894298561204     -0.04096552045327
  H   -5.47003937944363      3.04927076695236      0.16911801414464
  H   -6.68892992309830      0.93636460784681     -0.22095978858877
  H   -3.02997400912603      3.01248396582415      0.60098654946559
  H   -6.67953037766187     -1.49077788620279     -0.46004375829438
  H   -5.43757850909255     -3.62795326026026     -0.48147102571107
  H   -3.01298253650585     -3.65734280825995     -0.05307831110706
  C   -1.36934380703755      0.89081800469687      0.59271203197789
  C   -1.33887457168278     -1.60781594109473      0.44310729543242
  N   -0.89222910677004     -0.38723124342894      1.11115107612697
  C   -0.61147562395982     -1.88278893854702     -0.88846652690612
  C   -0.97320369312855     -2.72758471568027      1.42378363484002
  O   0.49363870527947     -0.33166347852950      1.19730149284917
  N   -0.82005293990662      1.84673747209017      1.56694502714607
  C   -0.74502545011222      1.30121089986335     -0.75735875388746
  C   -1.31008570400109      1.98949653088249      2.83398839059160
  H   0.15844458892243      1.52433640378416      1.59247547532108
  O   -2.47824462567971      1.94489170764403      3.16682588057210
  C   -0.21590121108114      2.26367507035872      3.84662603947078
  H   0.36559224474302      1.34512259943296      3.96871071847218
  H   -0.66162815696521      2.55295529607021      4.79656198746864
  H   0.46536740958453      3.04310493817418      3.49726610682201
  H   -1.02205899535538     -1.29685692485580     -1.71167484320725
  H   -0.68125034000695     -2.93909187876583     -1.16147972721045
  H   0.43353236149301     -1.60465548590379     -0.72511221305162
  H   -1.23100050345250      0.78596794250674     -1.58582669612608
  H   0.31139441351298      1.02350370664348     -0.71422307435840
  H   -0.85076129041272      2.37707498673648     -0.90780372183115
  H   -1.54946083551052     -2.61355513407344      2.34385217432571
  H   0.08521197416618     -2.60385225243086      1.65643874727282
  H   -1.14657899063686     -3.72206427267051      1.00486209167755
