40
Coordinates from ORCA-job input
  C   -3.52299862006076     -0.49554173820539     -0.91795680598987
  C   -2.50396254693379     -1.04634902646792     -0.21068098245882
  S   -4.00308815177290      1.01662371813609     -0.28158810023187
  C   -2.08908238589581     -0.23986174981633      0.88319391682033
  C   -2.81889546058428      0.92226079613996      0.97133400231784
  C   -2.13328238339829     -2.37121810336351     -0.79797192112938
  C   -3.97337334707529     -1.36432429139310     -2.04177795313208
  N   -2.76518803192662     -2.25173675155516     -2.15823193758176
  O   -3.02993207055039     -3.44458766523867     -2.74809327944626
  C   -0.64045850702320     -2.56719728539012     -1.02275926993491
  C   -2.69853817462109     -3.55218279316020     -0.00474750573199
  C   -5.24814253642991     -2.14965810909926     -1.71463253835685
  C   -4.13728561608694     -0.65125437942402     -3.37592252311197
  H   -3.63517086161676     -3.29772440203069      0.49522008726758
  H   -1.99332964963229     -3.92016237558457      0.74585297413691
  H   -2.89931575646813     -4.31994294449662     -0.76516139809049
  H   -0.23858371563260     -1.72009448017576     -1.58261937084255
  H   -0.51274943514880     -3.46911947038307     -1.62665879582638
  H   -0.09700284655755     -2.67299206692377     -0.07915462851091
  H   -5.33670694536628     -2.35697757799855     -0.64685288548123
  H   -5.12896891547306     -3.09876813995096     -2.25427658994122
  H   -6.15066276651184     -1.62583899950393     -2.04312657290174
  H   -3.23337097564256     -0.08326361905157     -3.60326023214672
  H   -5.00417294008703      0.01921243945298     -3.38047053195648
  H   -4.26784652423684     -1.41616720752528     -4.14532045792792
  O   -1.07842122215963     -0.70113566280447      1.66476597181573
  H   -2.75032692836376      1.72652035378155      1.68292948785351
  C   -0.56475411352538      0.00836952615024      2.78748382208641
  C   0.05532055105468      1.33576882631811      2.36678561615190
  C   0.52704541206521     -0.91623720496021      3.30505366173028
  C   -1.62774397089498      0.18499371859387      3.86653004966161
  H   1.27759326668033     -1.07938560939767      2.52954456687333
  H   0.09957839531343     -1.88379826855767      3.57427826148407
  H   1.01197794117241     -0.48530778537098      4.18392272566127
  H   -2.44686504334597      0.82239421224668      3.53889042565642
  H   -1.17993373670091      0.62827688907595      4.75961002152032
  H   -2.04553046861323     -0.78800358369338      4.13278699133999
  H   0.80290130925071      1.16290661546515      1.59010468165731
  H   0.54541917321846      1.80365032916997      3.22442089064598
  H   -0.68462140041819      2.02919386699237      1.97132612605052
