32
Coordinates from ORCA-job input
  C   -3.66213801954040      1.92949612642311     -0.87977426900362
  C   -5.06502355121777      1.88042123922941     -0.77622828587538
  C   -5.70173300360151      0.71818373695339     -0.43394884390669
  C   -2.90167214512049      0.81195678800609     -0.64752880486851
  C   -4.95478556378655     -0.45119359990153     -0.17134180598885
  C   -3.53855431723297     -0.39435045028797     -0.28234358167398
  C   -5.55572530366459     -1.67159299510833      0.20772759099392
  C   -2.75802259302530     -1.53877259596975     -0.00970745830514
  C   -4.78122666805317     -2.76881497457387      0.47191139705086
  C   -3.37939248932135     -2.70214047623942      0.36757760301099
  H   -5.64455535675833      2.77762385914306     -0.97006550214080
  H   -6.78395255820390      0.68019764343497     -0.35336800368580
  H   -3.15891306463506      2.85387360889744     -1.13621112459560
  H   -6.63720109788945     -1.72141121278367      0.29218071085553
  H   -5.24924322842054     -3.70250130555970      0.76787507590286
  H   -2.76654960550454     -3.56594731722965      0.59504723241249
  C   -1.39677487182679      0.83680975950798     -0.78845478965230
  C   -1.25525961454786     -1.45959054482060     -0.15174311393289
  N   -0.76345126984220     -0.12613380869834      0.07428636411214
  H   -0.95279776635390     -1.80585302295458     -1.16301627628547
  O   -0.64102796171658     -2.39264793108542      0.70823156140918
  O   -0.90986334737579      2.13949360048843     -0.56033863961161
  O   0.58964033984447     -0.09457693499692     -0.10647013620597
  C   -0.45079483553206     -1.91513551338951      2.01896001237910
  C   -0.69552919840532      2.43553991734635      0.79941439095335
  H   0.09074530959768      1.78861038989703      1.19869636200367
  H   -1.61110928510930      2.31932155727535      1.39617001027912
  H   -0.38398221604459      3.48320450871240      0.83421856649427
  H   -0.04422008444875     -2.75449135800427      2.59005317779128
  H   -1.39414013430359     -1.59557934437259      2.48350709231018
  H   0.25580231768155     -1.08039850630366      2.00876666274969
  H   -1.11410881564097      0.63992915696482     -1.84474317497601
