39
Coordinates from ORCA-job input
  C   -1.24403117221787     -0.36359941883315      0.26274035396980
  C   0.06221473189176      0.41120423975885      0.48175976795235
  C   -0.13689440800305     -1.93885052192843     -1.27244488527553
  C   1.19705560594121     -1.23912130565475     -1.01256866511793
  C   -1.31973463581366     -1.00974560693980     -1.10555424570726
  H   -2.10774613206629      0.27905811778816      0.44900837087381
  H   -1.26212991687621     -1.14449599099400      1.02877430934068
  H   -0.23282091668765     -2.76218739335988     -0.55389181176856
  H   -0.12049277309770     -2.38216342453896     -2.27559882447143
  H   -1.30142693574028     -0.24414061561486     -1.88710963824546
  H   -2.26335542314090     -1.55845061645933     -1.22064388249745
  N   1.15868090814480     -0.52884058976083      0.27184427170224
  N   0.17417651383484      0.84812078678863      1.88922791438363
  N   0.09640906368218      1.59528293722168     -0.39725362780852
  C   1.60187407047109     -0.34297035056136     -2.19279766440498
  C   2.26532882842347     -2.31983368720322     -0.85765086551459
  O   2.41407460999146     -0.00187560785303      0.55439354310473
  H   3.22633587630120     -1.84358861434728     -0.66856603162974
  H   2.44185054238452      0.26605056206143     -1.84987365190112
  H   2.02392692949596     -2.94845914528317      0.00427462001353
  H   2.31323916998487     -2.94326442534985     -1.75815237331200
  H   1.91681282919597     -0.94657679009109     -3.05172930061872
  H   0.79624108370579      0.32395300419938     -2.50203756924121
  C   0.66045244311541     -0.13115527012509      2.82459272485823
  C   -0.94398914804191      1.58516269733425      2.39175728172048
  H   -1.23840539243047      2.36821514436988      1.69245832186560
  H   -0.65882140846783      2.07369886376254      3.33053014851675
  H   -1.84497381973318      0.97368871749084      2.61143836475435
  H   1.62361272197226     -0.49643797642707      2.46293807774231
  H   -0.03545487773629     -0.97942722791586      2.98347858598645
  H   0.79486002356008      0.36442526470238      3.79500771906920
  C   -1.06494908876423      2.28801642267731     -0.85897739424879
  C   1.20923568744282      2.48510462658927     -0.18403159832530
  H   -1.91024142364549      1.62319901934293     -1.02962022810159
  H   -0.83508707492775      2.77168297369144     -1.82038565060786
  H   -1.41141877131531      3.10178207046248     -0.18680154781079
  H   2.04016824451473      1.88008755438315      0.19740140827514
  H   0.96585400263573      3.29681594628005      0.52957383715905
  H   1.48860943201590      2.95637563033632     -1.13779016467947
