47
Coordinates from ORCA-job input
  C   -1.45031381286568      0.09213590652105      0.07274397170195
  C   -0.07175892552597      0.69851748997057      0.41865663350771
  C   -0.32689523187651     -1.79401037179172     -1.06135823447290
  C   1.05973956381747     -1.14412853213407     -1.02757372594517
  C   -1.45158017135643     -0.78301103055503     -1.16365976833298
  H   -2.19876742532449      0.88237721159957     -0.03499887272316
  H   -1.78498594783256     -0.51944915599184      0.91940920729399
  H   -0.48451849505351     -2.36430011713062     -0.13771004563010
  H   -0.37528584825936     -2.52099058517673     -1.88012444534524
  H   -1.34877631576531     -0.17706004995190     -2.06231794658003
  H   -2.41551937364034     -1.30376629084300     -1.23862617709652
  N   0.95940083287770      0.20773860643155     -0.49157240604131
  C   0.22533309167837      0.45218530601023      1.91035591379976
  C   -0.06422794936164      2.25654280829972      0.24191443990583
  C   1.64942413101762     -0.92171418249779     -2.47414355440104
  C   2.09891093760122     -2.08173006359765     -0.29315933293064
  O   2.19858676214634      0.77500846254063     -0.24568353903699
  C   -1.17987576093537      2.99764948214591      0.97096887677228
  H   -2.16108955140050      2.81848443388910      0.51734781398957
  H   -1.00014276472522      4.07636506674887      0.91456725137884
  H   -1.25323631704959      2.73647314546947      2.02872915595473
  C   2.28780108741803     -1.80074577001695      1.18472028047178
  H   2.50758792151750     -0.73831074298441      1.30319475491717
  H   3.12356979556138     -2.40089348813822      1.56616240220984
  H   1.40451933481403     -2.07629304682697      1.76756947341844
  C   2.15353622030760     -2.14724356477569     -3.22733507790015
  H   2.94603073201363     -2.68515846838669     -2.70633058722885
  H   2.55892463486888     -1.83323421222902     -4.19584484216703
  H   1.34509719200414     -2.85774803025082     -3.44272036419479
  H   1.25532338839038      0.75577677443903      2.10602428286638
  C   -0.03338774804143      2.67759984134731     -1.21596424874485
  H   -0.89282736053523      2.28212127512669     -1.77037179186516
  H   0.89038117333386      2.31176768089646     -1.66337621175544
  H   -0.06679389158002      3.77087479097491     -1.29710466186704
  H   0.89698005217211      2.55662189320467      0.66871238873086
  C   1.84383823386208     -3.58123412997711     -0.46024400712791
  H   2.72164710003613     -4.14368260784509     -0.12058910484653
  H   1.62939535676234     -3.88979601349982     -1.48315663091488
  H   1.00340315387870     -3.90508271825707      0.16140178563920
  H   3.06281540923536     -1.84403452261501     -0.75272695604627
  C   0.73725320378515     -0.15187750763216     -3.41583892490896
  H   -0.09253887253919     -0.77058561222185     -3.77860968804011
  H   1.30198416369582      0.17293207908802     -4.29684736164554
  H   0.33660943661252      0.73054182915018     -2.92342722402897
  H   2.50141146293140     -0.27125406045486     -2.24075687196895
  H   -0.44500435491817      1.02242406315488      2.56014661940892
  H   0.10597174624672     -0.59966327122671      2.16903735182027
