34
Coordinates from ORCA-job input
  C   1.16734457010753      0.46375654305360      1.09349442107653
  C   1.97519214793103      0.29376336892659      2.20804758532248
  C   0.47595361542373     -0.61143594240433      0.55076103441784
  C   0.61982307284164     -1.85915011931763      1.13518948607825
  C   2.11263498112411     -0.96448884854094      2.80287199132582
  C   1.43949390622304     -2.05298744612809      2.24540413452440
  C   -0.08129104318414     -3.13584000004954      0.78688750810170
  C   1.35693991586774     -3.48942666236384      2.68762690415842
  N   0.77941836300604     -4.11435295825129      1.47193230849908
  C   -0.06728297423769     -3.47087229427601     -0.69916848236009
  C   -1.53392404162424     -3.15756661262393      1.29425034221114
  C   0.46935752150784     -3.67349873646212      3.92814588550963
  C   2.69389651778577     -4.18938885522990      2.91637471763684
  H   -0.16921196835144     -0.47813293249416     -0.31120625067730
  H   1.07588637928449      1.45238070300213      0.65428333082793
  H   2.49575755315392      1.15286187656319      2.61068969219854
  S   3.09874995430520     -1.22088840625275      4.24622979586318
  H   -1.65283292180920     -2.59273466965162      2.22058915162823
  H   -1.74171975126898     -4.21635602752472      1.49240623044794
  H   -2.23600857489380     -2.75989703985881      0.55561351603374
  H   0.95606096328302     -3.42803011705679     -1.07770936256255
  H   -0.70374211864888     -2.79546715823218     -1.28157734958914
  H   -0.43285045426493     -4.49477173579280     -0.80908709718596
  H   -0.34197632821547     -2.94392411692604      3.96479165960701
  H   1.03836706442257     -3.60142927144537      4.85812953495605
  H   0.04069793333583     -4.67664932472534      3.81185125687995
  H   3.38059714216331     -3.96303571315175      2.09820587391663
  H   2.47868186044266     -5.26120229898996      2.90125889947440
  H   3.16101976324889     -3.92593474462029      3.86883918096404
  O   0.20428515073852     -5.32615368905068      1.67855718372130
  C   3.51138766402149      0.44819276759463      4.75111104430532
  H   4.04552583932994      0.34480765457402      5.69685480814755
  H   2.61590360360098      1.05126044792491      4.91392732457939
  H   4.16609469334942      0.95042235978188      4.03578373996160
