26
Coordinates from ORCA-job input
  C   -3.43519864909422      1.93424962307605      0.41323008427468
  C   -4.83205968072682      1.92666225945795      0.24460424921454
  C   -5.50297535776794      0.75787462788960      0.01071039803847
  C   -2.71256908548633      0.76897422413835      0.34322732624501
  C   -4.80067110387350     -0.46606325540087     -0.05564062714760
  C   -3.38896286372175     -0.45880287731281      0.11484295210958
  C   -5.45688699314608     -1.69712273861236     -0.27722907902656
  C   -2.66694985295450     -1.68086231108941      0.08011945597210
  C   -4.74264289114889     -2.86321967902099     -0.31922854675255
  C   -3.34735136729058     -2.85242540916175     -0.13870533251734
  H   -5.37863235400787      2.86276028441452      0.30024379751056
  H   -6.58059718790678      0.75193091057414     -0.12201175182658
  H   -2.91413325907106      2.86671746316671      0.59701548449004
  H   -6.53401235893927     -1.70015262739569     -0.41376361412945
  H   -5.25181580550192     -3.80593831980439     -0.49290534892675
  H   -2.79385935329102     -3.78559934757003     -0.17652290859337
  C   -1.21822016170273      0.71204063544480      0.51601679269079
  C   -1.18664371973468     -1.63987038611534      0.30356322119659
  N   -0.63577993108230     -0.40271784297112     -0.17108903796718
  H   -0.68940177493880     -2.45976308131546     -0.22386748077031
  H   -0.95849497225490     -1.77548811372826      1.38559297500439
  C   -0.49251194223466      1.90543143653280     -0.06263828272454
  O   0.71482987067800     -0.31685217746819      0.10079676140835
  O   -0.39905109835801      2.98514387701903      0.47491985151324
  H   -0.11062055459593      1.71422203224371     -1.08067687386980
  H   -0.96380755184737      0.67703079300902      1.59987553458370
