35
Coordinates from ORCA-job input
  C   -1.30081024238648     -0.01588859117915      0.01705865236550
  C   -0.04806981438475      0.72309650684949      0.49163216457736
  C   0.09029081883415     -1.77819239188151     -1.02276692801091
  C   1.36829407872152     -1.06997956116198     -0.57491565702891
  C   -1.05890624554035     -0.81553312758234     -1.24959591740133
  H   -2.11539357535735      0.70437402383205     -0.12558659743945
  H   -1.61948862252533     -0.70435350636206      0.80803528894169
  H   -0.19667946019353     -2.48551290590709     -0.23453305504841
  H   0.29951860980744     -2.36536026665085     -1.92572098315805
  H   -0.82651518361019     -0.14267757315400     -2.08255781132942
  H   -1.96626655383048     -1.36056743726937     -1.53893883207351
  N   1.08015758543005     -0.20963939275623      0.57833527693317
  C   -0.27623611236935      1.23459198755794      1.92917945813872
  C   0.25504518300499      1.93879197417706     -0.40992174971836
  C   2.05139995031496     -0.33333440450530     -1.73989517946595
  C   2.35006387997387     -2.12106886058131     -0.05861181526352
  O   2.22071090641600      0.46098818176246      0.98877936011124
  H   1.90324838790730     -2.64889340949115      0.78867391882900
  H   3.24556909683423     -1.60937700310456      0.29520564447645
  H   2.60555571988196     -2.84211457604499     -0.84392531802115
  H   1.34193390131273      0.18299046039877     -2.39037208668116
  H   2.63654541944168     -1.02017739045190     -2.36124613247016
  H   2.72042906147139      0.39878973604378     -1.27633707327537
  C   -0.15208494902689      0.16636676129514      2.99962859140128
  H   -0.82958952294345     -0.67588720830550      2.82971777110064
  H   -0.38055407774489      0.58602614869270      3.98704162558209
  H   0.87168534940433     -0.21001635503751      2.98659588292773
  H   -1.25974078522480      1.72052902607946      1.97961867056762
  H   0.48270468114392      1.99533646431726      2.12764828213280
  C   -0.63988080805350      3.15850114617191     -0.24592363669293
  H   -1.69891183882457      2.91978020995725     -0.40013647614950
  H   -0.37630303438212      3.93319159958643     -0.97518052708402
  H   -0.54913160609882      3.60413869812639      0.74747149819326
  H   0.22181150830730      1.63298807082900     -1.45879051943895
  H   1.29859829428905      2.18015296574975     -0.17315579052754
