46
Coordinates from ORCA-job input
  C   -3.38325598581790      1.67485166013189     -0.97604090722654
  C   -4.78400937056386      1.65717860160598     -1.08832453032629
  C   -5.50672647755813      0.61195524179801     -0.58495696127907
  C   -2.69237559642162      0.63640593431441     -0.39531984848412
  C   -4.84260355429602     -0.49111912320539     -0.00685863041463
  C   -3.41849576204605     -0.50199501756374      0.02607280860407
  C   -5.54942731671272     -1.58349026663268      0.53983139317257
  C   -2.73022491569424     -1.65064884626411      0.48148832999614
  C   -4.86695515282669     -2.63910507662453      1.07678274583430
  C   -3.46304073217553     -2.67800249609155      1.02983201195937
  H   -5.29084166069702      2.49651081910117     -1.55373176055044
  H   -6.59159516242601      0.61003321094655     -0.62680294083798
  H   -2.84001748689501      2.53843231328454     -1.33736004751913
  H   -6.63491733319341     -1.56478367006070      0.53204687157837
  H   -5.40765902059902     -3.47002076892751      1.51856198804033
  H   -2.94989021262190     -3.54885241240354      1.41679482403230
  C   -1.21177827140648      0.74914889751107     -0.09312663096099
  C   -1.23838299008962     -1.78553663816003      0.25246111692350
  N   -0.60826287457903     -0.52335505049551      0.08760619718317
  N   -0.98963868510884     -2.62073256637178     -0.99346529159393
  C   -0.56500184142165     -2.54360572480113      1.40255340986724
  O   0.75904682498687     -0.53299960545054      0.12446210208380
  N   -1.01384629989763      1.57514471565016      1.16767800209401
  C   -0.47230404868981      1.50287316658611     -1.20465333939067
  C   -0.99254156301288      0.80412487337944      2.37873401956236
  C   -1.73656784901591      2.80315116670861      1.30182144670601
  H   -1.63882218985480      3.41615812273739      0.40316499037050
  H   -1.31131428867014      3.38083034841984      2.13188377484399
  H   -2.81977636752549      2.68720968986238      1.50152206482685
  H   -0.22088896155931      0.03877210831269      2.29380319265107
  H   -1.95861710930407      0.32743827529970      2.63419161754772
  H   -0.73340030689179      1.47362986413300      3.20652146694781
  C   -0.90085548542476     -1.85546659495819     -2.20539894104230
  C   -1.72428348975925     -3.83798625951647     -1.15857152945345
  H   -1.68557235022843     -4.44620388320602     -0.25225238481877
  H   -1.26546614692398     -4.42848376060677     -1.96125840839598
  H   -2.79319635178199     -3.70514760723236     -1.41646864275814
  H   -0.12092092993742     -1.10254266775788     -2.09020733826774
  H   -1.84611615432847     -1.36301888856334     -2.50444742709483
  H   -0.61738708082780     -2.53367058123444     -3.01798757865408
  H   -0.94490200243612     -2.19857825669298      2.36710205758026
  H   0.49421697301638     -2.29993366635919      1.30991195877812
  H   -0.70942902315405     -3.62323539068050      1.33459809942327
  H   -0.79910487754225      1.15590626879251     -2.18787475909502
  H   0.57899058733353      1.25498087021930     -1.05402447435293
  H   -0.61643110541954      2.58322867106618     -1.14785411809010
