28
Coordinates from ORCA-job input
  C   -1.41191481121661      1.53809174045354     -0.00035775063635
  C   0.08924260026698      1.51181331720273     -0.18986262634278
  C   -2.13857335789922      0.26283044243846     -0.33491351640377
  C   -1.45423610099776     -0.91823473991414      0.33311321715755
  H   -2.11401319803409      0.13411959649614     -1.42295535027149
  H   -3.18322617087384      0.37384660939421     -0.03539098626659
  C   0.02237981945868     -1.01033961288224     -0.02986996660960
  H   -1.95906572564431     -1.85211200322239      0.06191450142424
  H   -1.53049878714769     -0.80804620846242      1.42080957147835
  N   0.69000731822709      0.25316873506539      0.32513969718818
  C   0.23397301551914     -1.42986360374913     -1.49123709921323
  C   0.67641658780339     -2.06770631896954      0.85655590443885
  C   0.73881519379453      2.63630505315744      0.60623265938183
  C   0.38358599681645      1.74591989243800     -1.68641692893416
  O   2.01817779232571      0.20369111928489     -0.04243668945559
  H   0.51665396937043      2.51000640167183      1.66774460346893
  H   0.37523450153013      3.61307796679424      0.28141404280081
  H   1.81576817529850      2.54851946594422      0.46212793170848
  H   -0.29680137980208      1.20966424083043     -2.35128086213666
  H   1.40270423020361      1.35829196281371     -1.81084545401487
  H   0.34245560986517      2.80859932154683     -1.93756183964265
  H   0.55304624925506     -1.79054426304174      1.90702965208534
  H   1.74383600893404     -2.08399770054962      0.63392141116977
  H   0.23407447549181     -3.05571031219178      0.68488308853966
  H   -0.44585027946624     -0.92955496630631     -2.18452093194103
  H   0.10884493801429     -2.50992801632342     -1.62017454289015
  H   1.26470555963381     -1.14756691428652     -1.73113220705634
  O   -2.01713223072697      2.51949879436716      0.38037047097328
