35
Coordinates from ORCA-job input
  C   -3.39419179921118      1.82305682701681     -0.37971966199593
  C   -4.79774928364948      1.89153102000957     -0.43098384086735
  C   -5.55285911091790      0.76331648798171     -0.26380124052333
  C   -2.75028800503942      0.63013558310786     -0.16713190139907
  C   -4.93086516370467     -0.48354056298033     -0.03602857292992
  C   -3.50818463349785     -0.54671744540444      0.01331514468112
  C   -5.67471920086204     -1.66979970581495      0.13879017968934
  C   -2.86125722677512     -1.78258826966079      0.23790247551845
  C   -5.03079057505551     -2.85906174363843      0.34245805520035
  C   -3.62705780198040     -2.91277352974609      0.38839410369364
  H   -5.28047730716885      2.84812151422676     -0.60403872724724
  H   -6.63711778604860      0.80819627143617     -0.30281780883607
  H   -2.79609215112655      2.71992025059473     -0.48881188818002
  H   -6.75876269842395     -1.62099829767031      0.10156263981158
  H   -5.60281553869490     -3.77257553160551      0.46989047463432
  H   -3.13640045617092     -3.86695143404193      0.53433785148375
  C   -1.24354554149461      0.59359230339120     -0.13799470539674
  C   -1.34894219135798     -1.88310038912820      0.25336972474516
  N   -0.72143942242022     -0.61170051753050      0.37769715821374
  O   -0.96775301953520     -2.63472683664082     -0.93666878150555
  C   -0.83997851864852     -2.76434607835959      1.38895085002879
  O   0.64146773725220     -0.65047326688869      0.31827954483633
  O   -0.76872750424918      1.72020449845213      0.61087646385329
  H   -0.84523619106479      0.82509485378262     -1.14574958635807
  C   -0.71866446651230      1.49053803347987      1.99501098699904
  H   -0.38839244761353      2.43069314919186      2.44584943360855
  H   -0.00393457759509      0.69285638342787      2.21962269831059
  H   -1.70298717968059      1.22931855446209      2.41140694733978
  C   -0.82136925041532     -1.83220296013941     -2.07373888394794
  H   -0.54969512564843     -2.49785529114341     -2.89822835379446
  H   -0.02386561143988     -1.09804021263071     -1.91339787139095
  H   -1.75624455242828     -1.31881944699281     -2.34990996888447
  H   -1.29513276995908     -2.45929986170608      2.33361173674565
  H   0.23629835712089     -2.59356006412370      1.42443712100076
  H   -1.05057898598259     -3.81809428471447      1.19976820286286
