31
Coordinates from ORCA-job input
  C   -3.42542767181491      1.98057695756327     -0.25229967835399
  C   -4.82908562524446      1.99367932693346     -0.27949449006848
  C   -5.54285366836614      0.82795771995625     -0.21846600267141
  C   -2.72326823432281      0.79524861091695     -0.17814001154924
  C   -4.86754195414818     -0.41408810065878     -0.13180059515159
  C   -3.44063266268732     -0.42425599752475     -0.11303621535251
  C   -5.56014798436136     -1.63814069162413     -0.06997257460704
  C   -2.75538793768018     -1.65782438207412     -0.03793990509500
  C   -4.87545141324370     -2.82554731125404      0.00076834987812
  C   -3.47318834567091     -2.83006552012217      0.01401630467004
  H   -5.35097763945660      2.94380379375618     -0.34394564243406
  H   -6.62834310823806      0.83564541135636     -0.23335341982806
  H   -2.86986220120857      2.91080095190727     -0.26849191681649
  H   -6.64595123331480     -1.62521412876344     -0.08491980852021
  H   -5.41574400433385     -3.76574955852349      0.04152707603759
  H   -2.94209209327098     -3.77537886888393      0.06116630481732
  C   -1.22782543897078      0.84894480379156     -0.17049845228635
  C   -1.25853123960646     -1.66480441224417     -0.02483975258509
  N   -0.65172233452324     -0.39829658840386     -0.29458068655277
  H   -0.92341079062595     -2.31414643114851     -0.85214172635987
  C   -0.70617845064502     -2.30676360373840      1.25635884718709
  O   0.67788247494724     -0.45720311194227     -0.47594127344088
  O   -0.78470153953262      1.69271802553807      0.98175189782044
  H   -0.85502769695282      1.49971399044892     -0.97967449110961
  C   -0.79932935682680      1.01484876308019      2.19615393511807
  H   -0.55126034978543      1.73670707812982      2.98088618433867
  H   -0.05802971191993      0.20700268008968      2.21238268210723
  H   -1.78756012172880      0.58576359942499      2.43267886410189
  H   -1.16135727605407     -1.86593306728683      2.14583448248554
  H   0.36898072168089     -2.11205200905596      1.25156892653896
  H   -0.88380311209331     -3.38629792964416      1.27356278768167
