43
Coordinates from ORCA-job input
  C   0.44797233023819     -0.78676745120834      2.28671528104375
  C   -0.66681266912559     -0.86235013272782      1.45444113370970
  C   1.64239978952401     -1.32460823168956      1.56867889039996
  C   -0.24392052255721     -1.43235665629752      0.12325518543005
  N   0.98994493528484     -2.03400505535686      0.46343527526615
  C   0.34479323706480     -0.27697397339408      3.56586381141818
  C   -1.90107012220596     -0.41572532823280      1.89765423264003
  C   -0.89557290440756      0.16772838624605      4.01844371423478
  C   -2.00531183116053      0.09605055028374      3.18846259397176
  O   1.80478665425365     -2.45772486536283     -0.52894638824212
  H   -2.76400839494793     -0.45137512546780      1.24764307107568
  H   -0.99453645280504      0.57056419799127      5.02132551700372
  H   -2.96817692128083      0.44523151463842      3.54746017828145
  H   1.21702096562930     -0.22492559144960      4.20985831659462
  C   2.55549739108832     -0.20766837521290      1.05338769586239
  C   2.44887104439164     -2.33333523250267      2.37272309928767
  O   -0.13003080596514     -0.24485117315801     -0.78944081989369
  C   -1.18656504308812     -2.42868799358603     -0.53798610964769
  C   0.43037751190386     -0.47853983627768     -1.98357160469720
  C   0.68527056699717      0.50941549093091     -2.84832420625213
  H   1.14802068470553      0.27883330414060     -3.79826772731794
  H   0.48051552923451      1.54588883672639     -2.60449780734621
  H   0.67752798773455     -1.51605830723238     -2.18634326367035
  H   1.96915751269616      0.58584260944976      0.58844380873381
  H   3.20009824845059     -0.65083056721356      0.29017708199198
  H   3.16050010541086      0.21662502291963      1.86001680943622
  H   1.78901500483260     -3.09589524191063      2.79177460751907
  H   3.00373101441322     -1.85136423810265      3.18325545961125
  H   3.15169441890791     -2.81661473529836      1.69083769630324
  C   -2.45390378045289     -2.09853050221241     -1.02253708249995
  C   -0.78088596204232     -3.76008782270240     -0.64256597589557
  C   -3.28226120246092     -3.07122930086946     -1.57785466815626
  C   -1.59591202894250     -4.72452005692234     -1.20985135499047
  C   -2.85900365408629     -4.38285150543674     -1.67619646306488
  O   -2.95123426965597     -0.82324991185107     -0.91101510061727
  H   -4.27189326270822     -2.77594879414162     -1.90997792254111
  H   -1.24349418402691     -5.74740581337444     -1.28693625595137
  H   -3.51173107491450     -5.13371425484439     -2.10954028783080
  H   0.22414973188545     -3.98873395020349     -0.30926447022706
  C   -3.00172520892871     -0.09489731779090     -2.12029345653334
  H   -3.66939161810087     -0.57739149456849     -2.84562776915332
  H   -2.00643795069579      0.01634156183906     -2.55781183971964
  H   -3.39775480008729      0.89095736143421     -1.87277288556711
