30
Coordinates from ORCA-job input
  C   -4.09082853491431      1.21793353647022     -0.68227687003140
  C   -3.43467347729265     -0.06678591367063     -1.24570181496295
  C   -2.91571253949896      1.88471915450200      0.02085891522880
  C   -2.46260575712518     -0.48380000099281     -0.12655690804157
  N   -2.49673518023071      0.70038677178284      0.78299836062208
  O   -1.41999436751910      0.85727158956774      1.55232028335305
  C   -2.88115538051103     -1.67852017087922      0.72387796922439
  H   -2.75559554210854     -2.63008892322362      0.19646855449636
  H   -3.91610260706195     -1.58886293680660      1.05413867565331
  H   -2.23517615539083     -1.67598974029251      1.60529477107709
  C   -1.05803003125014     -0.75053653330184     -0.66479386627014
  H   -1.01326578331820     -1.72213225859190     -1.16621198206795
  H   -0.37325239664282     -0.73210986752879      0.18630660286956
  H   -0.73422176968492      0.01644782582615     -1.37032295148041
  C   -3.26062946723035      2.98721883155434      1.01451231824132
  H   -3.83899136608365      2.61019731168426      1.85640181578720
  H   -3.80178577607848      3.80541887973593      0.52819963233012
  H   -2.32426567721387      3.37006468105458      1.42411968710035
  C   -1.84289587913488      2.45769950987607     -0.91482602516334
  H   -2.03758347606586      3.50717010598291     -1.15545732067292
  H   -1.75183372643506      1.91115951125013     -1.85411333116306
  H   -0.89583460322727      2.39182940080457     -0.36923752445447
  C   -4.41561772723694     -1.07993439568168     -1.76843550164385
  H   -2.86266546952086      0.22647527701822     -2.12958058976518
  C   -5.10363567864924      0.79397219930088      0.33630889102160
  H   -4.54964640738121      1.81077381538117     -1.48370948908723
  O   -4.89926681526337     -1.00396560968606     -2.87562784793252
  O   -5.84695760762789     -0.16533573319335      0.17743697507930
  H   -5.21255872902708      1.42923197945800      1.22700574165065
  H   -4.62646207127443     -1.95299829740103     -1.12883717099820
