34
Coordinates from ORCA-job input
  C   -3.51291702496266      1.95120872386895     -0.10264603389373
  C   -4.89612381575451      1.98516449324804     -0.35114657605383
  C   -5.61399394012216      0.82529790005164     -0.45881191759927
  C   -2.85236223053020      0.75743221617811      0.02837431376477
  C   -4.97195556663421     -0.42451871163959     -0.32733346008237
  C   -3.57031866005692     -0.45174992806628     -0.08721099658572
  C   -5.66843515354321     -1.64874795716644     -0.41735596458614
  C   -2.89975178608316     -1.68620749730496      0.05524978474792
  C   -5.00134308569655     -2.83348188161377     -0.26605234623188
  C   -3.61561126023432     -2.85343930449754     -0.02475737835746
  H   -5.39562302810761      2.94335059072833     -0.44989641706588
  H   -6.68362991277436      0.84901624851571     -0.64279620707609
  H   -2.95648265589609      2.87402572630677      0.00723693961601
  H   -6.73795919547977     -1.63204040350301     -0.60280058091262
  H   -5.54264257766208     -3.77183306539240     -0.32983244422615
  H   -3.09823864370976     -3.79394630091973      0.11446144704135
  C   -1.36384272360106      0.70645006775367      0.25411289184281
  C   -1.40370773135470     -1.69638417130385      0.24697240419774
  N   -0.88552276421229     -0.50662233989963      0.82654592794543
  H   -0.89695876536776     -1.88812555987155     -0.72024230011228
  O   -1.08143395112732     -2.85868180994531      1.02855057136271
  O   0.48273598012258     -0.52864777539560      0.77179600566337
  O   -0.93802151456246      1.84039788963311      1.01694414043022
  H   -0.83337938305811      0.88493448134840     -0.70088153243054
  C   -1.27764002223517      1.96121346881720      2.30964087115670
  C   -2.01258271101396      1.17979266243635      3.09583995448975
  H   -2.16410276516518      1.49506112636043      4.12077800494719
  H   -2.41453496330677      0.23029940783584      2.77801515422207
  H   -0.85369720723534      2.88369213345811      2.69948229417299
  C   -0.56255193963758     -2.68649422735490      2.25948137776304
  C   -0.60234685479210     -3.67094861707421      3.15827329570028
  H   -0.05822793449504     -1.73553218859705      2.40863484620994
  H   -1.09374423397455     -4.61558117723508      2.95271178666341
  H   -0.11309197773550     -3.53701421975972      4.11360214327623
