45
Coordinates from ORCA-job input
  C   -3.16864983718071      2.03772159902610     -0.24201271140729
  C   -4.56161496495136      2.08166035666767     -0.47371540483278
  C   -5.33900069016913      0.96483375644902     -0.44337574690093
  C   -2.55297710024075      0.82852937651342      0.05418561951194
  C   -4.74608065037257     -0.29219835819399     -0.23220473659345
  C   -3.33971957732520     -0.36525776432928      0.00668254632414
  C   -5.52306000366763     -1.46839151870209     -0.28682786411025
  C   -2.74834911003216     -1.65302687677977      0.12664104320174
  C   -4.93022441454536     -2.69010209680201     -0.15243191934333
  C   -3.54245536596964     -2.77237374703324      0.04164858263242
  H   -5.02395417643906      3.04183620253817     -0.67961506396383
  H   -6.41014164496758      1.02348144979083     -0.61191107062980
  C   -2.44890264623190      3.36402948714054     -0.38178537927332
  H   -6.59157272796377     -1.37764417912462     -0.45772290451378
  H   -5.52138132248358     -3.59892302406025     -0.20483676604376
  H   -3.08350359778932     -3.74885047525257      0.12832473562136
  C   -1.08618315830132      0.72624775529069      0.44687279995745
  C   -1.25793296223271     -1.78279960208033      0.27459418106145
  N   -0.75561093630139     -0.61243449603492      0.99263053653945
  C   -0.61161934877047     -1.99861232215032     -1.10968602796472
  C   -0.88396029919770     -2.97457857590630      1.15991974609052
  O   0.60759242930007     -0.70877934805476      1.16156736609579
  C   -0.78827317094294      1.62120025244266      1.66647651547845
  C   -0.14324534689626      1.08912982051336     -0.71973233949663
  H   -1.56487713804881      1.48182885629510      2.42184789164035
  H   -0.69663666113423      2.68345785938266      1.43729724746515
  H   0.16000840755353      1.24682735595071      2.05792695156208
  H   -0.56584311036406      0.83220915084738     -1.69306051994152
  H   0.75855243495675      0.49674079170649     -0.51408977803672
  H   0.13312053135008      2.14614351390482     -0.73705966763934
  H   -1.42806852662303     -2.92241569310030      2.10588580156414
  H   0.18163023841587     -2.87524493594844      1.36583465967399
  H   -1.08696790193129     -3.93217735943912      0.67328691864854
  H   -1.01031493189490     -1.30910951604125     -1.85579670038572
  H   -0.77566054580240     -3.01877160874650     -1.46852086500012
  H   0.45948866800115     -1.81982334721773     -0.97947581770022
  C   -2.91790464246659      4.38575761944688      0.64945449676985
  H   -3.98097662623019      4.61535382256118      0.53326048976741
  H   -2.36229581704334      5.32300256970375      0.54418120460803
  H   -2.76596143006440      4.00869374972978      1.66264134828803
  C   -2.58872532541022      3.91196952130031     -1.80082408005738
  H   -3.62954036502451      4.13963905550453     -2.04782479005550
  H   -2.22343501790736      3.18492605813789     -2.52922883837723
  H   -2.00930774112200      4.83358644154572     -1.91426197345306
  H   -1.39016387553737      3.19768842260805     -0.21972971678157
