36
Coordinates from ORCA-job input
  C   -3.44077001886723     -0.09189923942223     -0.56499098329782
  C   -2.41089459313112     -0.50773429858518      0.32571266738298
  C   -3.75458658961484      1.22746554213167     -0.46770193436490
  C   -1.92731367351896      0.48902306667600      1.11423817890886
  S   -2.76953285192155      1.96747868214418      0.75628704313552
  C   -2.08299898742021     -1.94909601832652      0.08482906242855
  C   -3.84842502395838     -1.23820954170391     -1.43934095083325
  N   -3.30782377311431     -2.37253732575773     -0.64444189362348
  O   -3.17141074555625     -3.52583642053057     -1.34220887388035
  C   -0.80385861793620     -2.13729105213784     -0.74633227466594
  C   -2.00678152564992     -2.82232041635563      1.33201918772450
  C   -5.34908652932691     -1.48052879695270     -1.55336414686688
  C   -3.23748093232586     -1.15591928031229     -2.84680000314069
  H   -2.86524571489344     -2.62555796855226      1.97693400999300
  H   -1.08065065929969     -2.66977885538176      1.89647975198252
  H   -2.05437612945593     -3.86142800317806      0.99611913834605
  H   -0.64805268465091     -1.31489323011015     -1.44720774215521
  H   -0.96511369580246     -3.06335967175593     -1.31115683530610
  H   0.08705767759420     -2.22700851753423     -0.11708331757950
  H   -5.81065179446263     -1.43581280250424     -0.56497941356718
  H   -5.47714637140619     -2.49103944774835     -1.95020063827658
  H   -5.84381237164456     -0.76781277982834     -2.22177097166664
  H   -2.25126114133153     -0.68858848045976     -2.83421668714083
  H   -3.87387828584304     -0.59682757051038     -3.53946065414029
  H   -3.13460866767426     -2.19625131560377     -3.17685473327269
  C   -4.74114692583425      2.03342310992294     -1.23899761564546
  H   -4.25360542641220      2.74151835308001     -1.91800817199817
  H   -5.40108473521221      2.61034472271283     -0.58324401022978
  C   -0.80630234391190      0.47465494240242      2.09824094834670
  H   -1.05967950614671      1.09267153209804      2.96740027681366
  C   0.51774741959608      0.95159239598460      1.50677038283553
  H   -5.36288954445201      1.36966973455725     -1.84001639858192
  H   -0.69274797475048     -0.54772959254061      2.46694134402929
  H   0.42737899194154      1.97367674947157      1.13053161240505
  H   0.80860692306704      0.31448443433631      0.66899883738970
  H   1.31861682332763      0.93023736027468      2.25290580851186
