32
Coordinates from ORCA-job input
  C   -3.46992197137844      1.95993719025950     -0.37081863251070
  C   -4.87606799849228      1.96812474156547     -0.41317613602708
  C   -5.58432956600068      0.81021358039140     -0.24222371460782
  C   -2.77385866005878      0.79439043133982     -0.16879088247537
  C   -4.90804077302195     -0.41277141590026     -0.03057648785445
  C   -3.48559949337379     -0.41468976296924     -0.00398591655888
  C   -5.59317277822476     -1.63305568624885      0.15219923218044
  C   -2.78394209675161     -1.62600366279618      0.17595248303689
  C   -4.89500703946443     -2.79592386212675      0.33576043222304
  C   -3.48849817810357     -2.79201308736369      0.33901568327715
  H   -5.39950804296757      2.90473470688685     -0.57713604225185
  H   -6.66985172878407      0.81325275486239     -0.26520763066097
  H   -2.91909338498580      2.88784522002157     -0.48063166480938
  H   -6.67899778485632     -1.63269976882454      0.13952185466075
  H   -5.42664028721043     -3.73210718979575      0.47336592401323
  H   -2.93842867133018     -3.71951883969983      0.44683813353211
  C   -1.27571230892917      0.81322272509032     -0.06672982975819
  C   -1.27250813138363     -1.65875138974603      0.16082705932709
  N   -0.69537282988681     -0.44475645631832     -0.28520122645930
  O   -0.84102017332687     -2.75743209895551     -0.64530496479981
  H   -0.89577152026183     -1.95901280914671      1.15828704156697
  O   0.66248207870352     -0.44451873343419     -0.25590361324543
  O   -0.91235270265673      1.49649951149159      1.16988566921779
  H   -0.85556002274067      1.49777789028894     -0.81605145144028
  C   -0.77368090475355      0.62281013016883      2.25473979564011
  H   -0.49161416987846      1.23058314856720      3.11966706682978
  H   0.01500786721694     -0.10964972240829      2.04866858153179
  H   -1.71209298221500      0.10115400402130      2.50367649179091
  C   -0.78513493993928     -2.45729849524855     -2.01677756507625
  H   -0.47851251033067     -3.38092909263833     -2.51556512413970
  H   -0.05018969335389     -1.66728083410504     -2.19929538630448
  H   -1.76324860125912     -2.15183312722906     -2.41738917984813
