28
Coordinates from ORCA-job input
  C   -3.16151945974920     -0.85245750318587     -0.74001139331655
  C   -2.23919024948908     -1.71175822057048     -0.24584844718935
  S   -3.04915785032769      0.70084263306632      0.00233607666092
  C   -1.40470679294595     -1.14060027844574      0.75782089421626
  C   -1.73477164057157      0.16246595428590      0.98602296175204
  C   -2.37432994438338     -3.03704993762885     -0.92486601083603
  C   -4.02434065208823     -1.46173893699512     -1.79020544956566
  N   -3.75904969641970     -2.91848607890891     -1.49854193286872
  O   -3.98109015476973     -3.72751577326125     -2.56477171724360
  C   -1.32070637891232     -3.25905691715207     -2.01360848051549
  C   -2.38844403312565     -4.22566715907442      0.02633281055033
  C   -5.51770908881578     -1.23808396469527     -1.60240891191251
  C   -3.61703567541662     -1.07231124648700     -3.21390944600315
  H   -3.13344517845347     -4.06532844532558      0.80834075407611
  H   -1.40694865878967     -4.39583929267734      0.48429240963130
  H   -2.67533086511866     -5.11119057219419     -0.54651730801052
  H   -1.00442676119073     -2.32061943165702     -2.47276362443088
  H   -1.83505365897148     -3.86964604097342     -2.76960819677730
  H   -0.43472397325591     -3.77657330491821     -1.63298813457379
  H   -5.80671287561269     -1.51609407709888     -0.58713750464398
  H   -6.04294383795314     -1.89206255504419     -2.30291839512395
  H   -5.80506501083491     -0.19792410237641     -1.79475525589503
  H   -2.54940408926289     -0.85743807381325     -3.28599484755594
  H   -4.17294875802455     -0.20337613121022     -3.57828779019375
  H   -3.84173240950699     -1.96283499532081     -3.81654382807221
  O   -1.17452715436971      1.05648634745760      1.85331245117867
  H   -0.60828352076136     -1.65681199265306      1.28267542377635
  H   -0.44269163087882      0.60652009685777      2.28418289288652
