48
Coordinates from ORCA-job input
  N   1.15256347735529     -0.55133840072712     -0.40801592021673
  C   0.18824222041876      0.42041122734052      0.13399876433460
  C   0.79672599482177     -1.97526950147784     -0.33758627902828
  C   -1.19043727358779      0.19972100834838     -0.48264044406098
  C   0.69642834626192      1.78651045004318     -0.32438440403069
  C   0.12350441561548      0.44869237132458      1.67120139735465
  C   -1.64697144851053     -1.25152156068759     -0.39123029876170
  H   -1.13397271701342      0.52560503238209     -1.52691674027239
  H   -1.92205932858154      0.85344170066764      0.00585031121299
  C   -0.57913941086773     -2.16057597879311     -0.98685482710299
  H   -0.46215964116303     -1.96995101666087     -2.05682669122694
  H   -0.88766530947791     -3.20709333943610     -0.88971676913154
  O   2.39883114787582     -0.30869761914340      0.15795019464332
  H   0.80256745399398      1.78625933211845     -1.41311826941111
  H   1.68231067433280      1.95117276935466      0.10969166853829
  H   0.00407829715474      2.58144639281588     -0.02408195871779
  H   -0.57830000334612     -0.27790593225918      2.08787348608193
  H   -0.17302494553180      1.43675853776371      2.03790532097042
  H   1.13854459036784      0.22797215719968      2.01643513370513
  C   0.80151071208030     -2.65105601709008      1.05700181272878
  C   1.78540549784133     -2.75368269054846     -1.22677217612865
  C   2.18738543092917     -2.82991164902600      1.66177715673065
  H   0.34350991433573     -3.64606848259130      0.93900318292384
  H   0.16248810040642     -2.10346581064155      1.75004062281810
  C   3.16642608766467     -2.98314241000373     -0.63151004299921
  H   1.86649409002579     -2.20161517747912     -2.16859546119559
  H   1.32608386638930     -3.72854196973742     -1.45332410722345
  C   3.07586724038093     -3.64551443360442      0.73487826134579
  H   2.10333083870320     -3.32396088277284      2.63980686129689
  H   2.62284553479309     -1.83571131209193      1.78699525392023
  H   2.65873971673617     -4.65975950449352      0.62912936954558
  H   4.07644975181605     -3.76218879726903      1.16857673771800
  H   3.63208781783178     -2.00103634534193     -0.52290111758705
  H   3.76324534069732     -3.60261561160144     -1.31524055193643
  C   -3.03780301467147     -1.47960364248174     -0.93515671572790
  H   -1.70982068012186     -1.49311909973700      0.67522141002345
  C   -3.39399698471342     -1.29956392989741     -2.28789147971387
  C   -4.04203955256065     -1.86761004127185     -0.05443642287436
  C   -4.72187344327972     -1.49607337597368     -2.67817766909070
  C   -5.35852102070872     -2.06951395772929     -0.44342947577436
  C   -5.69601370243652     -1.87451360663814     -1.77270619833060
  H   -4.98074156909031     -1.35560687210331     -3.72411009553361
  H   -6.71666032729840     -2.01831269318646     -2.11118886582553
  H   -3.76827313594568     -2.00794955901355      0.98698406760934
  H   -6.10549325999564     -2.37017693006557      0.28207511450846
  N   -2.46128403218631     -0.98435838601499     -3.26395454785288
  H   -1.59250620723435     -0.59883441521895     -2.93350672695351
  H   -2.83221955050669     -0.48445002654873     -4.05455187130158
