31
Coordinates from ORCA-job input
  C   -3.57522127342554      2.11864075615686     -0.18057165858611
  C   -4.97853645349658      2.09466067306746     -0.06555407139550
  C   -5.65195191343744      0.90646219247998      0.01626735624066
  C   -2.86420659977502      0.94967926051670     -0.19843540120435
  C   -4.94749182679869     -0.31960925101152      0.02181026529208
  C   -3.52804523657351     -0.29195178205456     -0.06285415192829
  C   -5.59875602192092     -1.56632735550129      0.11746509768881
  C   -2.78756853955563     -1.49565253073971      0.00719161110784
  C   -4.86688155333381     -2.72315918751250      0.15048261904848
  C   -3.46308591435957     -2.68604406062760      0.11377355414102
  H   -5.52970936809399      3.02986987342610     -0.05495611997461
  H   -6.73545286821257      0.88651641393419      0.08596711209722
  H   -3.03780339777560      3.05525048879653     -0.26634238066929
  H   -6.68293513179527     -1.59176048755532      0.17362595575616
  H   -5.37126911006688     -3.68103272205566      0.23047971164119
  H   -2.89686266206418     -3.60385293151185      0.20926338732264
  C   -1.39864795843826      0.88668724437867     -0.43910332045949
  C   -1.26428443893523     -1.47499696940580      0.01460741629474
  N   -0.77084107943495     -0.15513789147280      0.37183044362029
  N   -0.72168198962267     -1.84427920772797     -1.26931430424287
  O   -0.94122799145144     -2.42601881166123      1.03484310819289
  O   -0.72981464869405      2.07080168920698     -0.14832643119522
  O   0.59195288332231     -0.04046378847129      0.07653518422225
  H   0.16689380062903      1.65537549682903     -0.00868298013476
  H   0.20086030427364     -1.38811655330519     -1.26446114281849
  H   -0.62527390249868     -2.84850390375977     -1.33675504607239
  C   0.39543882919025     -2.46678354856070      1.46840492611142
  H   0.44316514248127     -3.27065835258768      2.21055944202074
  H   0.70668724896599     -1.51608697427344      1.90356856849451
  H   1.08885205999431     -2.69302328180344      0.64901372744893
  H   -1.24709038909615      0.63615550280686     -1.51178247806052
