38
Coordinates from ORCA-job input
  C   0.66244703798194      0.77316733708304      1.87841858896142
  C   1.57523138556094      0.50677648081640      2.88609892456586
  C   -0.00682754323506     -0.25185603019733      1.21281044136392
  C   0.22025497428758     -1.57153755122029      1.61528365130972
  C   1.83390438469313     -0.81510133443925      3.24839876758496
  C   1.14060350656321     -1.84685151831472      2.62444646793586
  C   -0.31916488969810     -2.86475431987064      1.06721423171222
  C   1.30112676157611     -3.32825365855341      2.79925807768768
  N   0.07020959759118     -3.80448624854395      2.14134743387744
  C   0.30501265525566     -3.23503132564009     -0.28885973473340
  C   -1.83902222021459     -2.95412388287562      0.96497882590232
  C   1.24580415276397     -3.83177974177370      4.23852220888504
  C   2.58234461954739     -3.85009219268913      2.12859759613140
  S   -1.07085609159442      0.19333896076474     -0.13216027612199
  H   0.47088219440734      1.79960955413019      1.58490483972096
  H   2.08447592728967      1.33063710421271      3.36912610701022
  O   2.75695188065990     -1.16300218121184      4.18899089203317
  H   -2.29431621001301     -2.59265767824075      1.88974180359576
  H   -2.07397166812754     -4.01680228850567      0.86147508139176
  H   -2.23963519001729     -2.39517390483826      0.11773273853117
  H   1.32494680272505     -2.85722692478867     -0.39406980787373
  H   -0.29366405709311     -2.87454586693633     -1.12941222730589
  H   0.33305108057955     -4.33272533489085     -0.27868270289310
  H   0.39013274092050     -3.38885213425517      4.75276748950954
  H   2.15979280250586     -3.61323443635020      4.79532990150226
  H   1.08988093431094     -4.91207551950519      4.18313935370473
  H   2.82279523297722     -3.29367649934623      1.22000921235364
  H   2.35526559762493     -4.88705845848627      1.85564035973145
  H   3.44288514078204     -3.80418537991432      2.80099083268877
  O   0.09768069689358     -5.10897781847214      1.76842904468579
  C   0.12859756247207      0.26442991266638     -1.47877334151138
  C   3.45844377639928     -0.13545291563114      4.82284107300373
  H   -0.41619347797383      0.55983348172619     -2.37819943421881
  H   0.58079517531302     -0.71483129895134     -1.63651912967389
  H   0.90512345097099      1.00208454093612     -1.27007795238431
  H   4.13898107165789     -0.61586501200777      5.52604994219478
  H   2.78969475029928      0.53673137967811      5.37554034720727
  H   4.04229545335666      0.46154270443652      4.11055037193351
