36
Coordinates from ORCA-job input
  C   0.33303251039271      0.27780870627108      1.33786578797115
  C   1.19073603124607      0.16039462472296      2.39915586911081
  C   -0.28736181219512     -0.85710374657548      0.77529685183105
  C   -0.05661819269985     -2.09981467774326      1.37059204304243
  C   1.47164360887049     -1.09187540918003      2.97136040616795
  C   0.79799537050932     -2.21633093218740      2.47269863080811
  C   -0.61003547628682     -3.44380178021605      0.98889775535509
  C   0.82968752910913     -3.64711235775258      2.95128135470953
  N   -0.34559845351808     -4.15653613358637      2.24098929242189
  C   0.10890138456843     -4.06841449855567     -0.21672640028394
  C   -2.12012856743432     -3.49311839124812      0.76978209314995
  C   0.54472381785552     -3.83885555602172      4.44206283913980
  C   2.09609153228255     -4.44856347899123      2.54954027009208
  H   0.19494692965424      1.25199645388826      0.87873770062020
  H   -2.63197287852896     -2.93086467860068      1.55482536811079
  H   -2.41465142630503     -4.54109239966899      0.85551197357309
  H   -2.40983836750969     -3.11025497541467     -0.20826042259957
  H   1.18878113393622     -3.91682426527439     -0.15167458138720
  H   -0.24595357003579     -3.64019534583391     -1.15303486130244
  H   -0.09073432733628     -5.14209572874609     -0.18566094332157
  H   -0.30719137454471     -3.22207062485998      4.73388089256751
  H   1.39672537224311     -3.60594004283370      5.08289171291107
  H   0.27021510980411     -4.88791628024691      4.57312860245645
  H   2.63203083945341     -4.00229671523919      1.70843337752595
  H   1.69871751793211     -5.42597435695419      2.24566672871973
  H   2.79564230289867     -4.63829018532918      3.37190069741289
  O   -0.49674551406061     -5.46776980541260      2.23190352121436
  H   1.69851558007540      1.02673880049974      2.80396132685324
  C   -1.14773874500520     -0.66397062309753     -0.41218552597071
  C   2.48619383861791     -1.06462416359020      4.05212393140315
  O   -1.90839860089193      0.46755364921790     -0.37487627828894
  H   -1.83053527359751      0.84978833003639      0.50630861441914
  O   -1.21091559353889     -1.36784000595199     -1.38297191110645
  O   2.71674375798766     -0.08454076237039      4.71866102871176
  O   3.22289431505258     -2.17209636054803      4.24480923329339
  H   2.95134969099908     -2.86243628260570      3.62177302066818
