36
Coordinates from ORCA-job input
  C   -4.00709761896430      1.95407565718866      0.32045273471222
  C   -5.40342012179117      1.80297966875489      0.23364682289697
  C   -5.95721234976672      0.56533512035937      0.05181160549661
  C   -3.17456274908358      0.86753925374851      0.24586365866729
  C   -5.13345802964690     -0.57990038152709     -0.03486498557535
  C   -3.72559271843477     -0.42149349660949      0.08336884549728
  C   -5.65720732875462     -1.87443822114789     -0.23782765370996
  C   -2.87926991918813     -1.54785353924470      0.03086485624923
  C   -4.81593441597147     -2.95226118680135     -0.31594788317735
  C   -3.42761856531554     -2.78901936437877     -0.17547059929679
  H   -6.04075396571057      2.67882796122156      0.29985023348569
  H   -7.03301063787571      0.44506352910211     -0.03248768492459
  H   -3.57416802443326      2.94286294886060      0.42544417226523
  H   -6.73177790552783     -1.99886212728487     -0.33110638674519
  H   -5.22206087700909     -3.94589305733324     -0.47625429139745
  H   -2.76481121790070     -3.64482643796834     -0.21081657323552
  C   -1.68893053493065      1.03919132157157      0.28522626040952
  C   -1.37992381538658     -1.44629007174398      0.26897372606140
  N   -0.98263956493229     -0.13654123321192      0.56217847104162
  O   -0.69266829530557     -2.08420248618848     -0.80830359436407
  O   -1.04075220141364     -2.34257117659787      1.31751535510129
  O   -1.35229941846517      1.71800196092690     -0.95758382952272
  O   0.33475413059095      0.05092578761568      0.85718951245813
  C   -1.24091680030255     -1.80229510092347      2.59643287458050
  C   -0.12014740223205      2.39255195262259     -0.90974691325550
  H   0.70343713812681      1.70165682971862     -0.71218856277344
  H   -0.11498586598820      3.15223996372453     -0.11152093140725
  H   0.00477458624149      2.90084245440975     -1.87161869812283
  H   -0.96788605124121     -2.59067886390526      3.30272180193074
  H   -2.29267823799149     -1.53021439623795      2.77100086343467
  H   -0.59919560890950     -0.92665388882063      2.73953055893792
  C   -0.55068293462423     -1.26494611084738     -1.93351513143227
  H   -0.05354754108906     -1.86999933936531     -2.69590478242671
  H   0.05911968033901     -0.38777042065893     -1.70187348975654
  H   -1.51736848625814     -0.92503638275557     -2.33138470867122
  H   -1.40483633085337      1.74934287372718      1.08183434656847
