28
Coordinates from ORCA-job input
  C   -1.50709812592726      1.48521443943932      0.26663438753847
  C   -0.01508493375911      1.45702480472551     -0.10623361359998
  C   -2.19260708240881      0.22845090281134     -0.16779665663192
  C   -1.54485996715161     -1.00387794804246      0.37893132919130
  C   -0.05434103747368     -1.05273399688620      0.00229832924765
  H   -2.06965246364138     -1.89167615892860      0.01920395429390
  H   -1.60953214068503     -0.96199748514925      1.47246803305623
  N   0.59935103154472      0.21073915909985      0.37991947423055
  C   0.11604347420464     -1.43029017696834     -1.47524086139982
  C   0.62297604539513     -2.12875769270898      0.84635742398293
  C   0.69317235027799      2.57937891650386      0.64739920862815
  C   0.17399479678713      1.70125021292889     -1.60939226169919
  O   1.93139086192401      0.17336816359092      0.00657451764650
  H   0.59923165383425      2.41202257331604      1.72395993351178
  H   0.26921013307926      3.55636437738063      0.38956774896322
  H   1.75205836817767      2.54213841258581      0.39012568648249
  H   -0.56739361114965      1.18158867853943     -2.21933913914263
  H   1.17739786888912      1.33031754122154     -1.84174321731944
  H   0.11396577439603      2.76768015654339     -1.85041977150056
  H   0.54011284312432     -1.86751509423966      1.90497680311743
  H   1.68112983883755     -2.14678160300491      0.58406947692411
  H   0.16726159117483     -3.11011184880800      0.67360717321912
  H   -0.60619048836232     -0.93160799134258     -2.12417514341068
  H   0.00614812201931     -2.50955132439378     -1.62347516520490
  H   1.13270739510643     -1.12626918723575     -1.74391477270449
  H   -2.00511987249548      2.35245781135000     -0.17267571463549
  H   -1.57518769621016      1.54403274045518      1.35936241997467
  O   -3.15103472950794      0.20934161721681     -0.91373958275936
