48
Coordinates from ORCA-job input
  N   1.16559619747873     -0.43048045527884     -0.22494129306679
  C   0.15289394150386      0.42753692436658      0.41390682330522
  C   0.83336514225124     -1.84681852293802     -0.42184350879559
  C   -1.20500028601667      0.25673917137441     -0.26112862550112
  C   0.63203436342280      1.85720096921264      0.16677130273186
  C   0.04804790408857      0.22933919103080      1.93567453972393
  C   -1.62464965055672     -1.20471434941928     -0.36607468288200
  H   -1.15182164540818      0.66499146633379     -1.27818615211391
  H   -1.95816921558031      0.83927169945292      0.28246871037114
  C   -0.52904699354245     -1.93231783942808     -1.11935578714975
  H   -0.41254045694037     -1.47540995614979     -2.10964047507678
  H   -0.79299959775694     -2.98520868390975     -1.27225025147724
  O   2.37543149075977     -0.27808883771044      0.44572910402795
  H   0.73749292482521      2.02276113539217     -0.90892208723909
  H   1.61466650213394      1.97113595095714      0.62542476728115
  H   -0.07344109823774      2.58663773251194      0.58113378520610
  H   -0.63373645164601     -0.57709463016133      2.21778853265610
  H   -0.29877248964909      1.14167962913905      2.43221100873991
  H   1.06292917486126     -0.00427363620431      2.27429392934076
  C   0.82355184634809     -2.76069647169790      0.83090156363547
  C   1.85213311707233     -2.43535268421635     -1.41646044832076
  C   2.20136103638381     -3.04864796346446      1.41309747067424
  H   0.35976051445695     -3.71561707829553      0.53593935797475
  H   0.18332337654715     -2.33660763473913      1.60535572142208
  C   3.22673371511900     -2.73794053472160     -0.84106105107516
  H   1.93588128356129     -1.72185176347193     -2.24258458224174
  H   1.42202870223930     -3.36476007290516     -1.82266253059054
  C   3.12187695623588     -3.65689985044142      0.36624536219221
  H   2.10440765017186     -3.72560833210593      2.27357450778467
  H   2.62050394196320     -2.09441306752628      1.74051137611153
  H   2.72594865733855     -4.63662705538116      0.05385155192527
  H   4.11505352880646     -3.84238518525124      0.79328607978700
  H   3.65688344114725     -1.78341453137917     -0.52783705569107
  H   3.85946465148448     -3.19412400642758     -1.61499913334140
  C   -3.00071973731114     -1.33572365146735     -0.96329666905015
  H   -1.68084867525531     -1.61802598079729      0.64787224688880
  C   -3.22610864513558     -1.64454049898969     -2.30057159223633
  C   -4.12604538353527     -1.10129052023941     -0.17513107302039
  C   -4.50729919920012     -1.71134550034460     -2.82879153304855
  C   -5.40993437691459     -1.16512646521824     -0.68771886152568
  C   -5.62046412779198     -1.46859000421150     -2.03129353838662
  H   -4.64562005349180     -1.95978742207081     -3.87744705036068
  N   -6.91949567895566     -1.58841764033861     -2.54582539968033
  H   -3.98663943334176     -0.85839263513167      0.87428637991684
  H   -6.26292483936396     -0.98151108960019     -0.04031517168174
  H   -2.38073904614333     -1.83905085456841     -2.94958902555051
  H   -6.96949905156161     -1.41152613685757     -3.53744588748009
  H   -7.59300392686435     -1.02073232671131     -2.05471065511291
