37
Coordinates from ORCA-job input
  C   0.13955388319755     -0.37163773537090      1.83987594410206
  C   -0.44963830548894      0.41209643272100      0.86179919183771
  C   1.25287063266426     -1.17405652831840      1.23870797867613
  C   0.21691419402685      0.15857870323426     -0.46047991219313
  N   1.41992591185243     -0.56824918091787     -0.04232118403672
  C   -0.33011189916453     -0.35203001788551      3.14192389958617
  C   -1.51932016968822      1.23585361984160      1.16077392550190
  C   -1.41165866369415      0.46816109933296      3.44862378699806
  C   -2.00214107080068      1.25560327065685      2.46603487060410
  O   2.04460985763031     -1.31102321170113     -1.00283451174354
  H   -1.95755260199824      1.85698460159221      0.38695027666557
  H   -1.79612893069637      0.49882144538255      4.46312635243023
  H   0.14778128183325     -0.95340026600959      3.90732845645504
  O   2.43761600366356     -0.99609804212910      2.09716998258701
  C   -0.67096227863366     -0.71701557409533     -1.34932877937686
  H   -1.20102554361166     -1.44520744961173     -0.73324491703312
  H   -0.01130418007367     -1.25996965970077     -2.03051441924604
  H   -1.40557387480633     -0.11822563214352     -1.89216879128668
  C   1.00962760049317     -2.67497397134689      1.19682543416002
  H   -2.84372839260451      1.89144713112025      2.72191470864184
  N   0.51907397584573      1.41976242259015     -1.14828586360744
  C   1.04598560069773      1.24810115325620     -2.49104978761477
  C   1.42659977573093      2.24789582840697     -0.38126198867368
  H   0.32784242219226      0.72453639682609     -3.12313446539568
  H   1.98521999155845      0.67956332176291     -2.50013026272438
  H   1.20902961421950      2.24058297386431     -2.92555649255825
  H   1.04406551639014      2.39247512867122      0.63040542624948
  H   1.50201930599876      3.22789133949356     -0.86369048342564
  H   2.43179024373179      1.81077197908797     -0.29799217283028
  H   0.01297846880421     -2.88400962866314      0.80142410855944
  H   1.10391226380116     -3.11492961772367      2.19116071814099
  C   3.58949706948488     -0.69169964300281      1.48451487496724
  C   4.70116546785823     -0.42339825599913      2.17533496467504
  H   3.54873768222322     -0.71559764145429      0.39541692768917
  H   4.71194431486814     -0.41101668668735      3.25963170950709
  H   5.61945547785207     -0.21342740084968      1.64379018119412
  H   1.74605935464230     -3.09502070423025      0.50951031251776
