35
Coordinates from ORCA-job input
  C   -2.11586132460024      0.65518142905161     -0.64899925040461
  C   -2.09242687189673      0.02926724176326      0.72340197490708
  N   -0.90237557350877      0.85203135938210     -1.31062697167912
  C   0.33348595529252      0.52753839492142     -0.76541280024445
  C   0.37279133405139     -0.12544537416613      0.59381045487224
  N   -0.80500435455351      0.21234900142344      1.39170849403269
  C   -3.12146829652254      0.74642553958119      1.59653474531436
  H   -2.84935316185730      1.79962565178544      1.69513269596968
  H   -3.06614436152070      0.28381874241903      2.58180454858574
  H   -4.12247539211873      0.66532842493800      1.17206090663753
  C   -2.53036206945931     -1.44415191536362      0.57662011526193
  H   -2.08800882160101     -1.93715892623679     -0.29088434104258
  H   -3.61593116471344     -1.52136051934963      0.49369053891768
  H   -2.17719178624043     -1.92028368239718      1.49729724816873
  C   1.57292793898274      0.42642826767791      1.36115490429216
  H   1.45417043423800      1.50272571168473      1.50389933258009
  H   2.50429157241525      0.22975193912812      0.82950437155785
  H   1.56219502823024     -0.05308248710344      2.33964504954742
  C   0.59076221550923     -1.63973763369122      0.38546047574795
  H   -0.01285805652729     -2.04890073659955     -0.42665027312485
  H   0.28775436099666     -2.08948723363939      1.33642311249244
  H   1.63922610499000     -1.85635840970784      0.17251606462964
  O   -0.78839170043687     -0.49796295715605      2.57499896084313
  O   -3.15974111188979      0.95691113914801     -1.19465326167659
  C   -0.96112475121547      1.44441706298444     -2.65516095577305
  C   -0.28863637883571      2.80760549343105     -2.70829125070433
  H   0.78787154140977      2.72351769436629     -2.56694517900473
  H   -0.69477189068968      3.46048678373505     -1.93244738923655
  H   -0.48481534313054      3.27190822090779     -3.67911839678320
  C   -0.45365712823708      0.48547080109820     -3.72099003951179
  H   -0.64484073363471      0.90870901497038     -4.71135452595760
  H   -0.98140724672884     -0.46902474692786     -3.65528756391956
  H   0.61493747618020      0.30384794045042     -3.61428343336287
  O   1.34538728907591      0.73963225881808     -1.40641369315870
  H   -2.02905373145319      1.58927650867270     -2.81421466877379
