34
Coordinates from ORCA-job input
  C   -3.47133656336230      1.76970103337014     -0.82313980502533
  C   -4.87147688300085      1.70429893323649     -0.71329909760999
  C   -5.47218750539744      0.56885682375191     -0.24508297664017
  C   -2.68459151707638      0.69905687717748     -0.48821080941919
  C   -4.69917776590435     -0.55888909791335      0.10866520016496
  C   -3.28238607326633     -0.50170223918805     -0.04018031527949
  C   -5.29074442434202     -1.73768689218741      0.60563571463180
  C   -2.50066784918491     -1.64374064082288      0.26568340670223
  C   -4.51182912141916     -2.81425263990695      0.93211033120458
  C   -3.12008828245265     -2.77133718186289      0.74953278571230
  H   -5.47209325850182      2.56514002060074     -0.98816065088998
  H   -6.55131354847755      0.51516191553535     -0.13893054235502
  H   -2.99905197780657      2.68791726168373     -1.15743198300115
  H   -6.36937192123775     -1.77330440065559      0.72418429986844
  H   -4.96772377333156     -3.71889304152090      1.32081908316304
  H   -2.51383506501584     -3.63866525433645      0.98123689084385
  C   -1.20109435451004      0.81402594458772     -0.50885162975115
  C   -1.01980442406403     -1.65433103617308     -0.02563156929758
  N   -0.56230815035789     -0.47726512366956     -0.69209670958778
  H   -0.85578406594736     -2.47501146868733     -0.74289194344644
  C   -0.20913530428494     -2.17083593913798      1.18947148286351
  C   -0.67384628891444      1.47319674237967      0.76500304914316
  O   0.75463967576868     -0.47471973530063     -1.00235449512563
  O   -0.19985686085230     -3.35899008273554      1.43287989580620
  O   -1.28711569034133      1.48276492058970      1.82286525034114
  C   0.74444343045939      1.90448167693582      0.62464411294363
  H   0.81572584460698      2.73746565157112     -0.08325749009769
  H   1.26383113392370      1.05544383185997      0.12526508258084
  H   1.17534638005271      2.18267914073553      1.58737600177385
  C   0.59990640776612     -1.19273451661352      1.96549596302588
  H   1.27640159648067     -0.71990428964072      1.24347964004473
  H   1.14977765718048     -1.71129312432886      2.75043553252749
  H   -0.03659070165033     -0.41058510058911      2.38529259647178
  H   -0.87693075553841      1.40754103125544     -1.37600630228687
