45
Coordinates from ORCA-job input
  C   -3.43027029839435      1.88054921266908     -0.12123467164965
  C   -4.85627693104287      1.86737494887584     -0.04723369737955
  C   -5.54428033442338      0.68355452123669      0.09648649797673
  C   -2.68826399181594      0.72339417365586      0.04978985096760
  C   -4.81326487008766     -0.53166642675190      0.17326359308613
  C   -3.38544944758900     -0.51491388311377      0.15956366210099
  C   -5.48823462343533     -1.77036256970763      0.25576686163125
  C   -2.68693836883624     -1.75262267416874      0.18750001607929
  C   -4.79191928925044     -2.94551612728247      0.29144113615745
  C   -3.39335857222364     -2.93068641811273      0.24675020553327
  C   -5.57184500067183      3.18971929045624     -0.12521422576249
  C   -7.04410440286422      0.60886789294151      0.13493042823148
  C   -2.79886181282665      3.21224101002314     -0.42364700509851
  H   -6.56982331112747     -1.79180281448172      0.28182316823367
  H   -5.32097549477111     -3.89178241757690      0.34797987330636
  H   -2.85449263680328     -3.86923721622474      0.26175040018428
  C   -1.16826594249753      0.73520267670268      0.15807042033386
  C   -1.18725167624364     -1.77816820846829      0.08912236653136
  N   -0.65085395293730     -0.55301096252902      0.67822337041366
  C   -0.76779230621782     -2.01086616432010     -1.37740754720004
  C   -0.59221406774210     -2.90904461425733      0.93376587514553
  O   0.72506321933369     -0.55518187237226      0.60060388076985
  C   -0.72089617462650      1.70853396339954      1.26434848128179
  C   -0.47611500948675      1.09862834839414     -1.17521222186230
  H   -1.30811050946353      1.52728028643157      2.16741904874489
  H   -0.79537194525551      2.76066572828088      0.99100398285056
  H   0.32030764181073      1.44673741202510      1.46306267466025
  H   -1.07626429694377      0.83367884071190     -2.04803415944184
  H   0.46000723421920      0.52541154595860     -1.14367586567346
  H   -0.21328771411722      2.15706807792908     -1.24938957658086
  H   -0.98826948705610     -2.86316813694072      1.95090418974359
  H   0.48142989491164     -2.72397343856552      0.96773545022917
  H   -0.79210353573992     -3.89578381108444      0.50782041043166
  H   -1.32019219805919     -1.36824894307044     -2.06504728653732
  H   -0.93543426554092     -3.04967521960897     -1.67678727835140
  H   0.29902824188457     -1.77707329824574     -1.43336536862000
  H   -3.35169652692873      3.72053703932024     -1.21865038357366
  H   -1.77525536461362      3.10541016336696     -0.75769485499607
  H   -2.80092602480776      3.88151257083454      0.44394642744049
  H   -5.03117823573765      3.96130154230744      0.42495575345219
  H   -6.57476364742963      3.14357260217865      0.29344466809987
  H   -5.66303770268840      3.54688084772369     -1.15799804635831
  H   -7.51858247944091      1.57884059711650      0.01178910239883
  H   -7.40055156012301      0.18068190869779      1.07777573324842
  H   -7.42266222229871     -0.03420998435418     -0.66579534017901
