27
Coordinates from ORCA-job input
  C   -3.49891043764316      1.40552922994081     -1.35877028771866
  C   -3.12520781657823     -0.06843679150632     -1.54340972782266
  C   -2.36209914350974      2.02983248868534     -0.53349175278917
  C   -2.18782695834313     -0.34948298196718     -0.37272589529484
  N   -1.42472407126042      0.89830176317164     -0.32811948836087
  O   -0.62517489076876      1.01979583264846      0.77870484963896
  C   -2.93012344666547     -0.63683826799700      0.94045462351092
  H   -3.13733154516760     -1.70144003300192      1.09211652322289
  H   -3.87008632323748     -0.08177897657917      1.03301260815690
  H   -2.24262684812663     -0.27706592818960      1.71763957667107
  C   -1.21543538274021     -1.48324577571492     -0.64428617970949
  H   -1.73189442802815     -2.44342607336899     -0.74731978431222
  H   -0.50552405272504     -1.52616095369541      0.18532651540204
  H   -0.65297359043650     -1.27049352220317     -1.55734563020962
  C   -2.84402794431337      2.64296227386513      0.78477064616718
  H   -3.62902909994426      2.04716548040427      1.25591601005632
  H   -3.22590070754454      3.65884397233189      0.63830888920146
  H   -1.97383988327657      2.64406442383520      1.44983657516725
  C   -1.58905410656876      3.09719675577630     -1.30321236395411
  H   -2.18824996909140      4.00050312966487     -1.47163543499349
  H   -1.26256305703094      2.69589476906163     -2.26605917705003
  H   -0.69865291585979      3.35672099216715     -0.72464143080835
  H   -2.56985913926348     -0.21008696108015     -2.47350113107384
  O   -4.24906379374718     -0.93592575653144     -1.64628449882582
  H   -4.60235080649773     -1.00964091319091     -0.75463803700505
  H   -3.66404096822670      1.90590527252415     -2.31824858287667
  H   -4.44480867340449      1.45775655094924     -0.80915741439004
