37
Coordinates from ORCA-job input
  N   1.23403535363499     -0.40895119654266     -0.11412700177709
  C   0.21949559837419      0.37936396607923      0.60723211093451
  C   0.92978987516280     -1.81571197582915     -0.40170137806344
  C   -1.14695329968106      0.23145832701663     -0.05842060168970
  C   0.67123272597121      1.83174885243886      0.46431522212549
  C   0.14371805809070      0.06452073408586      2.11148353046338
  C   -1.53820951016289     -1.21033417566117     -0.27319267357121
  H   -1.10267087821237      0.71412799494578     -1.04555152210699
  H   -1.91055321583433      0.75132720985248      0.53064180854590
  C   -0.44934375637771     -1.88950192763817     -1.06769599349635
  H   -0.38060837500238     -1.38536321188704     -2.04243244959748
  H   -0.71706607558921     -2.93461868992746     -1.25464381250666
  O   2.45731989189683     -0.27582094764113      0.53707751444974
  H   0.75180386711300      2.08377392807465     -0.59685456900696
  H   1.66162694823256      1.92434138351054      0.91084641278835
  H   -0.03637298170409      2.51362701484691      0.94953748027070
  H   -0.51272283387370     -0.77814935251284      2.34066113476446
  H   -0.22003532088671      0.92657438018231      2.68021948416489
  H   1.16964054807077     -0.16467981425029      2.41806757866835
  C   0.96942644642757     -2.81335778732536      0.78577747058282
  C   1.93633435765056     -2.31153938630731     -1.45788799898552
  C   2.36624838966975     -3.11444009959204      1.31317642025550
  H   0.51496328950911     -3.75474346573738      0.43840113541515
  H   0.34101096075937     -2.45319531737688      1.60088323066630
  C   3.33013755917404     -2.62371830038683     -0.93646174096120
  H   1.98474070929573     -1.54103478270128     -2.23410843177384
  H   1.51443075434920     -3.21950582701756     -1.91700469100808
  C   3.27195475742131     -3.62780959399282      0.20434868223223
  H   2.30316508539587     -3.85338172143532      2.12441165531641
  H   2.77650666143622     -2.17885148328271      1.70023379415436
  H   2.88748918298143     -4.59052099763917     -0.16915950112325
  H   4.27843380810569     -3.82298128417483      0.59424934845916
  H   3.75067323666171     -1.68485064908550     -0.56803128663462
  H   3.95208662078488     -3.01192570162378     -1.75501187652348
  O   -2.81232292837539     -1.32785965349808     -0.91245283304483
  H   -2.72093984522685     -0.89487253945722     -1.76639827848973
  H   -1.67296566524278     -1.71508390850923      0.68777262610275
