35
Coordinates from ORCA-job input
  C   -3.29229254287262     -0.98404302394714     -0.92522866812781
  C   -2.47790781949915     -1.97850923625997     -0.30560622525758
  C   -3.30309595853016      0.19232453974492     -0.25602210598098
  C   -1.88731732263576     -1.55035012733937      0.83498481307652
  S   -2.31032956103102      0.11170777637714      1.18490703983501
  C   -2.48093398243855     -3.22498991270283     -1.13532326684729
  C   -3.86213837746922     -1.52251658260062     -2.20022213984988
  N   -3.70405266974868     -2.98376461120972     -1.95516062584203
  O   -3.77067161166186     -3.73917958325118     -3.07870077976490
  C   -1.22114974544173     -3.38604289174568     -1.99983995276210
  C   -2.71810563262059     -4.50390371080127     -0.34448022674278
  C   -5.34949255850864     -1.26786442109647     -2.40189401496826
  C   -3.09370872543462     -1.03642992190893     -3.43724199290227
  H   -3.61429508495096     -4.39413694676316      0.26869846976866
  H   -1.86669167679706     -4.75073742606116      0.29730723785853
  H   -2.88620991140426     -5.31086058511192     -1.06200083931251
  H   -0.77739754246725     -2.42529659512443     -2.26860262146690
  H   -1.57845904045862     -3.88450655220884     -2.91076282470121
  H   -0.45853833940460     -3.99902074945026     -1.50963217533798
  H   -5.90272416232914     -1.58324103148006     -1.51439381715282
  H   -5.67472964541275     -1.88482746044018     -3.24325371005592
  H   -5.55879604152606     -0.21513189016913     -2.61708806752349
  H   -2.03418689087325     -0.88478489374111     -3.22425478839056
  H   -3.50129086062352     -0.10077618231465     -3.82970813304685
  H   -3.19817943978734     -1.84246466119993     -4.17286543783315
  O   -1.04843748811568     -2.21061691036745      1.67656214753500
  O   -3.95505723848346      1.34670732854305     -0.55676853913239
  C   0.30654190966918     -2.16587935123681      1.27266031940257
  C   -5.21640564824362      1.46316372349061      0.07302837075066
  H   0.87519521492585     -2.74206178785235      2.00468988896356
  H   0.67348142680699     -1.13292050194358      1.25503705583696
  H   0.43109343343452     -2.60595907755870      0.27901185649783
  H   -5.64786501795131      2.41138874249395     -0.25217392263087
  H   -5.10984916767558      1.46531027487278      1.16403921957009
  H   -5.87368228043920      0.63900424036465     -0.21942154346471
