30
Coordinates from ORCA-job input
  C   -3.36372828567497      1.94595853314830     -0.31909496312850
  C   -4.76726799719670      1.97382435388392     -0.22069248280733
  C   -5.47542345788202      0.81920460586641     -0.03099123012764
  C   -2.67380200712997      0.76348760205926     -0.22663746889235
  C   -4.80505874277437     -0.41972650917304      0.07648625297354
  C   -3.38474807293179     -0.44544365255062     -0.01888487618792
  C   -5.49775250572886     -1.63241872392191      0.27762570588549
  C   -2.69802021453248     -1.67772555096358      0.09996958270790
  C   -4.81165496424854     -2.81225474546660      0.38512809507531
  C   -3.40873619268901     -2.83399844540831      0.29973548766082
  H   -5.28896808906251      2.92253199525373     -0.30018766167965
  H   -6.55881294960485      0.83634527951390      0.04176234983398
  H   -2.79942059066828      2.85849437661072     -0.47067783279231
  H   -6.58124445580346     -1.61070945642957      0.34874729381438
  H   -5.35173326020207     -3.74106575799026      0.54001094462787
  H   -2.85398294963984     -3.75855218847242      0.40247588499714
  C   -1.18436729276746      0.69937313649499     -0.37941655063245
  C   -1.19398305962202     -1.71001934361472     -0.00361035093580
  N   -0.62840780302658     -0.40037483556785      0.38699141995214
  N   -0.78114520640234     -2.09583649665480     -1.35177314948343
  N   -0.65197911303615     -2.70948308294545      0.91030991651374
  N   -0.53710891980740      1.94395072713747     -0.00599717233227
  O   0.73231177327064     -0.44639963604287      0.10767142187283
  H   0.14205259768630     -1.63558259098854     -1.40505688720156
  H   -1.37981339897055     -1.62531664751043     -2.02227334560749
  H   -0.83088740050572     -2.33643059822376      1.84078141502663
  H   0.35411715278270     -2.58129075718608      0.79463043942912
  H   0.44673178473538      1.66257364757478     -0.02870661879075
  H   -0.73299865275944      2.07010424473284      0.98640959422135
  H   -0.94323772580734      0.55139051683453     -1.45434521399278
