38
Coordinates from ORCA-job input
  C   0.99881449877639      0.63938706602575      1.76387025044561
  C   1.92904386548886      0.30451772962761      2.73147136254626
  C   0.28107520511107     -0.36786731141798      1.09244300231509
  C   0.50921145036663     -1.70120805476161      1.39708034486757
  C   2.14855996065701     -1.03443965660134      3.06042004869906
  C   1.44085387624120     -2.01245320616576      2.39605485938353
  C   -0.15062602869294     -2.96478681527743      0.91755635579826
  C   1.44226639152175     -3.48594053669968      2.66091963871066
  N   0.80695349905968     -3.97065839002976      1.42856619356242
  C   -0.19917061087053     -3.16359009006804     -0.59444155350812
  C   -1.56791326533949     -3.13921753692883      1.48687549150118
  C   0.65232245177619     -3.85173388985361      3.93176875729527
  C   2.83185524005704     -4.10629976991832      2.74485938386692
  S   -0.93404648045833      0.16074513342359     -0.08655046906038
  H   0.78640999931061      1.66975062527156      1.51243890407458
  O   2.66562516119695      1.22175564379634      3.43092707930892
  H   2.86233280291818     -1.27823627071479      3.83931782446625
  H   -1.65188172795821     -2.74708608647910      2.50231266954001
  H   -1.73783217594265     -4.22109067070941      1.51313519421368
  H   -2.31683973943245     -2.64473872997474      0.86370279518724
  H   0.78281108669991     -2.95768881805524     -1.02733948306680
  H   -0.95957730499325     -2.54246213408862     -1.07322969807293
  H   -0.42511810139856     -4.22042391569688     -0.75785699002924
  H   -0.19505437970264     -3.18239167991214      4.09010459721486
  H   1.27892235746069     -3.83329170157982      4.82795175381128
  H   0.27537472568561     -4.86441958559371      3.75011361213261
  H   3.41155136017025     -3.83451609585055      1.86022871654077
  H   2.70977705513987     -5.19191747726400      2.75719810606465
  H   3.36909912150901     -3.79226060529737      3.64618743309106
  O   0.33188401845561     -5.23371331658625      1.48881650617134
  C   0.07876830657202      0.27030208105918     -1.57651068834355
  C   2.44983611619337      2.57081439982894      3.13507241131018
  H   -0.56364403675478      0.64889142935532     -2.37444316411856
  H   0.45614581339906     -0.71450744450040     -1.85221435939389
  H   0.91178978590360      0.95902213658175     -1.42828041339212
  H   3.11793989721847      3.14163357590909      3.78071578517312
  H   1.41366275559123      2.87152907806492      3.33479083366839
  H   2.68042704906345      2.80008089108144      2.08698690802471
