34
Coordinates from ORCA-job input
  C   -3.54015994483669     -0.48538228021066     -0.70950903968303
  C   -2.51378244807480     -1.06646859787920     -0.03679613976119
  S   -3.84062478650505      1.11511590250385     -0.18136149060507
  C   -1.94562555055145     -0.19980681872454      0.93240236700618
  C   -2.56124017422517      1.02788129591126      0.97304397161260
  C   -2.29324739965992     -2.45637863459243     -0.54427619261497
  C   -4.12034781224937     -1.38115443537452     -1.74944931883469
  N   -3.60132575314402     -2.70070324729740     -1.24624990707182
  O   -3.53734671640164     -3.65401016643051     -2.20986010449025
  C   -1.10209613107059     -2.56108444192395     -1.50041704719701
  C   -2.17078194442256     -3.51123819571251      0.54630060029344
  C   -5.63967690071324     -1.46367223565098     -1.74654543865579
  C   -3.62367266012002     -1.05754119938036     -3.16280179842285
  H   -3.02434648062566     -3.44217611949549      1.22392072380346
  H   -1.24185637233713     -3.40040426673329      1.11375707676216
  H   -2.19335831572337     -4.49185333747402      0.06411599670196
  H   -0.93258444547198     -1.63091221115812     -2.04620759230639
  H   -1.39710011997827     -3.34329384403117     -2.21418962571151
  H   -0.17902397838267     -2.83242874331965     -0.98052952876597
  H   -5.99464695687946     -1.68884763194975     -0.73922889606861
  H   -5.92749321730578     -2.28533120348794     -2.40696488288176
  H   -6.10167473579326     -0.53520892485084     -2.10066447247774
  H   -2.61843802681652     -0.63271930811154     -3.15413739822269
  H   -4.29006730151991     -0.36481227939727     -3.68487432215464
  H   -3.59447622037212     -2.03161337493764     -3.66921229736006
  O   -0.90046425402169     -0.60621237525441      1.69788252104903
  H   -2.33743254952854      1.87575054828650      1.59971889795193
  C   -0.41009358679668      0.33100926504708      2.61964775876686
  H   -0.08982081894801      1.24068984206211      2.09164888425534
  C   0.74493250686318     -0.29543660384752      3.35924462692692
  H   -1.20960514050069      0.62199039924353      3.31614650051644
  H   1.53942549904683     -0.57242947646596      2.66362033204027
  H   0.41985750347098     -1.19717284498482      3.88171119449798
  H   1.15217523359556      0.40545554562230      4.09212404110152
