25
Coordinates from ORCA-job input
  C   -1.76813317613579     -0.01333529103157      0.07723955707485
  C   -0.43643155681965      0.73738922143378      0.04801516147966
  C   -0.76066076495287     -1.78156980188591     -1.43239526094463
  C   0.54969038107798     -0.99374802983503     -1.43861856145708
  C   -1.94257620201193     -0.85320774811883     -1.18214888016060
  H   -2.57801109499022      0.71265367098812      0.17112800122302
  H   -1.77902387560520     -0.66116333294399      0.96130468518387
  H   -0.70477552294258     -2.53726464056200     -0.64078944736838
  H   -0.86734204283366     -2.29211978316826     -2.39142678285351
  H   -2.06510216513266     -0.19028784664676     -2.04224848029740
  H   -2.86121343079331     -1.44417031066111     -1.10214592774776
  N   0.65067710067657     -0.19135952536095     -0.22785115073167
  O   1.86301184713027      0.42801020819619     -0.14521225746557
  C   -0.11524097813776      1.21695625782060      1.45767776230845
  C   -0.44618468330540      1.88960338520122     -0.92200171338197
  C   0.70178615775027     -0.15341399693020     -2.67919721245515
  C   1.70873044667467     -1.97026070948638     -1.29139749090627
  O   -0.44218471244260      2.27230270588537      1.92957426274357
  H   0.40567993769383      0.43090102795299      2.04210330434855
  O   -1.43893916499174      2.41018844745861     -1.37672313229263
  H   0.57248142423647      2.19948303055068     -1.21659754609405
  O   2.28104487022646     -2.51792027339436     -2.19491529496437
  H   1.92322063957422     -2.18508523347664     -0.22472208077459
  O   0.07664531855549     -0.30660105292323     -3.70358951834139
  H   1.42794124749915      0.66872962093765     -2.54688199612492
