35
Coordinates from ORCA-job input
  C   -3.53210057414177      1.90396965475076      0.20484147617818
  C   -4.93340443334140      1.90802676300846      0.10760365230446
  C   -5.62206812502296      0.73748056076341     -0.05942624671596
  C   -2.82302696474654      0.73203450646686      0.13834231490590
  C   -4.93187620798839     -0.49087256443310     -0.12950867107598
  C   -3.51141057177713     -0.49227337681377     -0.01850151907878
  C   -5.60506519646550     -1.71870271490744     -0.30668364589255
  C   -2.79313581530199     -1.71280288448059     -0.07189856097527
  C   -4.89697065575476     -2.88675053387031     -0.36507060961251
  C   -3.49567492985358     -2.88245794046316     -0.24194358685273
  H   -5.46924591647381      2.84999690591424      0.16608980459583
  H   -6.70497860714463      0.73519374019748     -0.13895927998101
  H   -2.99445327605849      2.83325156369625      0.34669837961733
  H   -6.68727563037362     -1.71716588802731     -0.39430453045465
  H   -5.41572689173355     -3.83040241721309     -0.50215557477390
  H   -2.96106165109840     -3.82383222603561     -0.27498762930304
  C   -1.31416011488817      0.72566721116971      0.18309578432571
  C   -1.29409150415185     -1.68763485049099      0.04072599568285
  N   -0.80605476942064     -0.50941975199117      0.74880010551912
  H   -0.86518656423399     -1.69495198512467     -0.98655048293652
  C   -0.73129243879967     -2.91130864493857      0.74857031456236
  O   0.56363543183540     -0.49992364064743      0.72493062461219
  O   -0.85609858888970      1.83820026054631      0.97301850439659
  C   -0.73414116648718      1.02601698309487     -1.19662584301407
  C   -1.06334499600482      1.90385953100093      2.29493770431522
  C   -1.69410220998357      1.08027177203726      3.12719328116504
  H   -1.75190008707606      1.36516068129456      4.17088989842504
  H   -2.08501324439127      0.12537146619370      2.81167093795973
  H   -0.63078962975737      2.82954929170378      2.66956775403902
  H   -1.19611451659089      0.38483109201384     -1.95111345982041
  H   0.33235809797152      0.79944045091587     -1.11615167195549
  H   -0.90452623063522      2.06880009106008     -1.46836023733112
  H   -1.23782183668344     -3.06615372501281      1.70604513299333
  H   0.32056087393490     -2.68679553557023      0.92850419319592
  H   -0.82483105847137     -3.81576384580812      0.14174569098015
