41
Coordinates from ORCA-job input
  N   1.25460006050121     -0.42501236099553     -0.12521317164191
  C   0.25551753883636      0.38794122194880      0.58914574208628
  C   0.93271518905050     -1.83465548953409     -0.37745249663220
  C   -1.11649660472331      0.25196988860016     -0.06852900722197
  C   0.71873648526183      1.83327843954925      0.41051601704243
  C   0.18494775800307      0.10460597446283      2.09849515443694
  C   -1.52667875272012     -1.20907310253888     -0.23554871395982
  H   -1.06494989485062      0.72055677574550     -1.05848394742100
  H   -1.86022055804350      0.79882748904309      0.52173989659639
  C   -0.44358441508844     -1.90060396728602     -1.04849753621831
  H   -0.35623577651565     -1.40662820227235     -2.02272039738138
  H   -0.70318251715679     -2.94992411833974     -1.23189229897274
  O   2.48228785825264     -0.29204841045847      0.51429293071870
  H   0.79874381416407      2.05979639291734     -0.65642046095602
  H   1.71087752755184      1.92802304751768      0.85193379126632
  H   0.01892655071013      2.53234027277341      0.88217974242049
  H   -0.49125029165901     -0.71539319868679      2.35072884072383
  H   -0.15158185125110      0.98690934151241      2.65236091993156
  H   1.20694980502782     -0.14354630047591      2.40232701611136
  C   0.95784640761742     -2.80598043908825      0.83029339051789
  C   1.93186367684377     -2.36587256445467     -1.42315927916411
  C   2.35045299878749     -3.11248761166587      1.36554335972587
  H   0.49397334721667     -3.74974031006089      0.50153627074807
  H   0.33184632596971     -2.42396472849862      1.63685916124650
  C   3.32053280047788     -2.68908178822009     -0.89434642116435
  H   1.99368026317048     -1.61164405748116     -2.21429723689226
  H   1.49776812642887     -3.27664408836656     -1.86574245915987
  C   3.24817569987938     -3.66526135429088      0.26939826852509
  H   2.27672118458740     -3.82989238718164      2.19460777959945
  H   2.77412393676956     -2.17388390663503      1.72990411220157
  H   2.84968525203904     -4.63113576045144     -0.08023639537817
  H   4.25197296174585     -3.86526190040591      0.66332134773988
  H   3.75497147192022     -1.74848029311911     -0.54733922868986
  H   3.93589160045447     -3.10468606637918     -1.70412088121350
  C   -2.89560410390558     -1.29760848237053     -0.85425723570791
  H   -1.61752262516990     -1.67282479181494      0.75002943128712
  O   -3.88114339303645     -1.57670010059585     -0.20557893379262
  C   -3.01542136454031     -1.01693798339319     -2.33335855523942
  H   -2.41819534832301     -0.15112634170501     -2.62539630461095
  H   -4.06247545579201     -0.86709804238596     -2.59306214429806
  H   -2.62348568849193     -1.87311069491773     -2.88993006720930
