38
Coordinates from ORCA-job input
  N   1.21662153772744     -0.40697486586146     -0.13063995498437
  C   0.21856128109058      0.39188979617705      0.59863627208039
  C   0.90357909199682     -1.81633905860782     -0.39045312951569
  C   -1.15714420571514      0.25247117829551     -0.05053672897738
  C   0.66977758265846      1.84243850772845      0.43349692289667
  C   0.15693528332738      0.08998997260349      2.10499134915813
  C   -1.56768243529905     -1.20413955828767     -0.23350827925435
  H   -1.11865211868671      0.72550976425381     -1.04022528936794
  H   -1.89938315496475      0.79428806188226      0.54670869801558
  C   -0.48029948447046     -1.89420204244451     -1.04737532469161
  H   -0.41598398472682     -1.40200537808129     -2.02600545613467
  H   -0.73704935265262     -2.94452668504132     -1.22317856324184
  O   2.44704847784106     -0.27185905463614      0.50270213867001
  H   0.74374007535653      2.08107702372035     -0.63109311226705
  H   1.66237821493593      1.94215820211696      0.87254403147326
  H   -0.03470885850230      2.53002065742573      0.91503094784661
  H   -0.51015978856518     -0.73995139011141      2.34918443997385
  H   -0.18513029366420      0.96246801107984      2.67090367981807
  H   1.18252044137304     -0.15263360246710      2.40126088931308
  C   0.94799231388464     -2.79600742825533      0.81003860552630
  C   1.89426279297038     -2.33267199893335     -1.45157239188304
  C   2.34815041954612     -3.09863685997659      1.32788907429253
  H   0.48591316500773     -3.73985084747889      0.47993448377125
  H   0.32884111515476     -2.42186494371047      1.62573093389450
  C   3.29106374457210     -2.64827976884707     -0.93973617725385
  H   1.94068345500525     -1.57264155532291     -2.23799104633116
  H   1.46238377024470     -3.24387627231668     -1.89492421265919
  C   3.23865599105851     -3.63396135562103      0.21717177076748
  H   2.28760446684036     -3.82584841613453      2.14946396904932
  H   2.76927449582283     -2.16144553000581      1.69848799344589
  H   2.84491390256627     -4.60014759804486     -0.13669632513570
  H   4.24812035932276     -3.82868995374163      0.59899039066028
  H   3.72294083544927     -1.70726610874289     -0.59093356193819
  H   3.90043970100914     -3.05362752976547     -1.75912235988744
  C   -2.85983773206771     -1.25868555211205     -0.97368180502457
  H   -1.71129214663087     -1.69796511505810      0.73089959414253
  O   -3.89910294407889     -1.72733871908286     -0.58092795585327
  H   -2.80923601473740     -0.80021398659408     -1.99113451039445
