35
Coordinates from ORCA-job input
  C   -2.96417658417219      0.31883027080773     -0.55476589411420
  C   -2.29376455946797     -0.82935934828241     -0.03528656393797
  C   -2.38627589243229      1.56318434422570      0.02672980808462
  C   -1.21819066182189     -0.38748010315091      0.91786486103719
  N   -1.07011022551503      1.04798011720771      0.49635529330202
  O   -0.47342482027491      1.82899111850077      1.43744484752852
  C   -1.62455783736393     -0.50946970784390      2.39338292093516
  H   -1.29667127715329     -1.45471249735518      2.83942010069365
  H   -2.70411214191039     -0.42184205065351      2.52663718304928
  H   -1.12683589334335      0.33661342166344      2.88801766945864
  C   0.17458712019601     -0.97976983162778      0.73022310507371
  H   0.28492973327780     -1.97677259960323      1.16838561381415
  H   0.86202240402171     -0.29153116454631      1.23026043602116
  H   0.42863985866397     -1.01210977957342     -0.33157856916945
  C   -3.23305185947656      2.13609429238521      1.17218032039882
  H   -3.74594806894109      1.34942531312175      1.72800941455385
  H   -3.98322737431536      2.84650450527649      0.81090974343328
  H   -2.51630938801185      2.63488365768780      1.83614406569819
  C   -2.10119658521347      2.66193045572801     -0.98837672132324
  H   -3.02552284456295      3.09531401166740     -1.38748773444820
  H   -1.50521249320205      2.25583488105997     -1.80797477324720
  H   -1.52059389443975      3.44286509583868     -0.49034386183880
  C   -2.95878148681139     -1.91379121161113     -0.54419423825687
  C   -3.98582202855174     -0.08308323608503     -1.36090459314606
  N   -3.99128938944766     -1.47157973291389     -1.32829062360865
  H   -4.72787150160887      0.46008881299850     -1.92386529995859
  H   -4.48653476795457     -2.07188409512721     -1.96054286396857
  O   -2.85384604981700     -3.26353547314898     -0.43065071857888
  C   -1.74029456729462     -3.70744638546963      0.31282312221724
  C   -1.83967378536451     -5.20377680586180      0.45889359185613
  H   -2.75374026993397     -5.48116941372207      0.98873745524965
  H   -0.98433679643643     -5.58178085070246      1.02373478908014
  H   -1.84908119719288     -5.68983831579280     -0.51969638131531
  H   -1.73323844983030     -3.21410943291952      1.29125360736047
  H   -0.81708642429697     -3.41853826217792     -0.20169911193394
