41
Coordinates from ORCA-job input
  C   -1.40234553596015     -0.00361646492551      0.18639761282741
  C   -0.06898323049231      0.65760500971715      0.53951733333937
  C   -0.23907592807709     -1.72096017608887     -1.17591077401991
  C   1.11875231141157     -1.09880832124957     -0.84423520817785
  C   -1.36758201893575     -0.70788554881007     -1.15638509098476
  H   -2.19773960206315      0.75115644087707      0.20929714587468
  H   -1.64118764541795     -0.74075701707596      0.96126809618989
  H   -0.45731060092266     -2.49833821187671     -0.43513837432591
  H   -0.17979166307732     -2.21917085158600     -2.15114720526662
  H   -1.23482993935130      0.02352322466153     -1.96167346840667
  H   -2.32722892533216     -1.20287052015746     -1.35209987004605
  N   1.01592032282757     -0.31093896629310      0.38375845155818
  C   -0.07932222797931      1.04603520497093      2.03190028605546
  C   0.15275958905194      1.94449544329934     -0.28723126802402
  C   1.66090636801890     -0.27859157842357     -2.03597144656773
  C   2.12833081146595     -2.22415775638473     -0.53870495290763
  O   2.23529969998510      0.25665973118450      0.70671980574150
  C   0.12144476862070     -0.11642745885453      2.98506316597534
  H   -0.59827527226886     -0.92353413821080      2.82095378345431
  H   0.01894956666230      0.21812840263044      4.02445203810692
  H   1.12373686989691     -0.51682029964436      2.82970116291357
  H   -1.02013527706909      1.56739992328429      2.25276010429939
  H   0.73815958852722      1.75358091801846      2.19049663359875
  C   -0.63987760953377      3.17738694667593      0.12233617457125
  H   -1.72102244043056      2.99542638805684      0.11826468901866
  H   -0.45112178220871      4.00558892351494     -0.57042780584048
  H   -0.37240749755249      3.52429205630186      1.12292198187303
  H   -0.05961618294202      1.74246844257683     -1.34024880517781
  H   1.23058714816852      2.12692915472719     -0.20045446171614
  C   1.95689771264576     -2.86410205354447      0.82548364299383
  H   2.16892535813541     -2.11202577763316      1.58591226539494
  H   2.64750684189271     -3.70779725511460      0.94383312716352
  H   0.94195894783516     -3.23767568325182      0.98851138577151
  H   3.12755022919799     -1.78378914790465     -0.57924462048007
  H   2.06239531590850     -2.98066738491746     -1.33162570208663
  C   2.23973806212946     -1.05847226205975     -3.20740564327040
  H   3.13617369305840     -1.61566723388947     -2.92622638304365
  H   2.51980523950568     -0.38048777306348     -4.02184533856290
  H   1.52418512171124     -1.77890117028247     -3.62105265078038
  H   2.42292575776961      0.36668400836991     -1.58257758692274
  H   0.86984405518794      0.37047283237540     -2.42029223011313
