35
Coordinates from ORCA-job input
  C   -3.55051782876276      2.03717088340301     -0.12812986071845
  C   -4.95659008470817      2.03330560765625     -0.16413500293532
  C   -5.65084051123138      0.85359567618525     -0.19472599979836
  C   -2.84329905454413      0.86193298349268     -0.12917578823521
  C   -4.96235419114680     -0.37814668492323     -0.17645649934836
  C   -3.53946376293938     -0.36642108284591     -0.13503650453355
  C   -5.63034423033597     -1.62230758061817     -0.18510982442995
  C   -2.82206544306530     -1.58145467643119     -0.08422337766367
  C   -4.91605427870686     -2.78882080847934     -0.14105523075232
  C   -3.51061110917720     -2.76902905240307     -0.08321986296685
  H   -5.49229366806386      2.97736899307392     -0.16958410185340
  H   -6.73629431746847      0.84818414020818     -0.22577166995780
  H   -3.00209315427922      2.97087000386295     -0.09472460304779
  H   -6.71555958591389     -1.63590530081967     -0.22145669939524
  H   -5.43587282534079     -3.74184575554047     -0.14391847781452
  H   -2.94828882258027     -3.69265999384110     -0.01877417562358
  C   -1.32959757369687      0.86069544465696     -0.15390350205872
  C   -1.31126830964621     -1.56593645319273     -0.03511725603858
  N   -0.80382466937262     -0.33491551976826      0.49887998112310
  H   -0.89512611711117     -1.76460874577360     -1.04373719566398
  O   -0.84926917934318     -2.67514380773485      0.71232076834838
  O   0.56209628945792     -0.34332748484177      0.47080000371288
  O   -0.85363829587075      2.01169787718056      0.52283727560573
  C   -0.81060999282345      1.01185601796129     -1.58087817028399
  C   -0.78685152643079      1.87638773182757      1.92155333756920
  H   -0.48881270477866      2.85713084261982      2.30357501517322
  H   -0.04321041053602      1.11931374260639      2.18644465159148
  H   -1.75973123138855      1.60829557100185      2.35602014518321
  C   -0.82520684158975     -2.45424956833693      2.10137463312836
  H   -0.52057458813557     -3.40321089337329      2.55173051868317
  H   -1.81372596158065     -2.17805010140331      2.49473032916210
  H   -0.10248879156225     -1.66963398812399      2.34233280747829
  H   -1.32117782816565      0.32128265248969     -2.25755475791351
  H   0.25381747608429      0.76839323019668     -1.52844815582215
  H   -0.96336687524553      2.03242610002783     -1.93598274990380
