35
Coordinates from ORCA-job input
  C   0.10083014591219     -0.51694331204943      1.71463458559520
  C   -0.53574507285556      0.29170818619262      0.78048920398384
  C   1.23803529777090     -1.25690464347634      1.06600003078631
  C   0.12650433306391      0.13962901196762     -0.55513900955122
  N   0.89365770716598     -1.10411599044972     -0.35040431363293
  C   -0.28990741374856     -0.51065898299264      3.04210616726516
  C   -1.58090337758086      1.11457604918753      1.16643162871025
  C   -1.33791507308299      0.31874495384889      3.43330492832929
  C   -1.97991670369718      1.12497226686525      2.50147238562152
  O   1.91752051688833     -1.29846811521028     -1.22728516162809
  H   -2.08141143534973      1.74787116715481      0.44018634768803
  H   -1.65670665997679      0.33822880136171      4.47098663747155
  H   0.21398807822758     -1.15591954535590      3.75424378945334
  C   2.58585860228488     -0.61746698267260      1.42580186419690
  C   -0.84375256687169     -0.09135353120458     -1.70755668660722
  H   -1.52005666143424     -0.91300362018796     -1.46235292325695
  H   -0.25618302876928     -0.37639144552675     -2.58366113160424
  H   -1.42936039965406      0.80483902964932     -1.94061530587279
  H   3.24633612007644     -0.78308313206891      0.56895127047202
  H   2.46301152831713      0.45661624613526      1.56938732462401
  H   3.00597282889550     -1.04206541245825      2.34082185861097
  N   1.25418028051581     -2.67388304014846      1.47990030507880
  H   -2.79504456018068      1.76859234807163      2.81762497100368
  C   1.03522023880699      1.33197332098969     -0.89062330123954
  H   1.79525801228028      0.92886288484550     -1.57003192531823
  H   1.53363869152047      1.72540526419246     -0.00255374494405
  H   0.48213398666979      2.14693950080357     -1.36629094785968
  C   2.38993636969398     -3.41709837282337      0.95940992517416
  C   0.03592952074072     -3.36239716533037      1.10842909497603
  H   3.32734966130924     -2.98226755953892      1.30801156061329
  H   2.40897022029268     -3.42428808988708     -0.13866591171121
  H   2.33618525487323     -4.44344495255318      1.34154881524077
  H   -0.83428026292312     -2.82095832503308      1.48392525230135
  H   0.04449384585730     -4.35889195652929      1.56433397201717
  H   -0.07624802503864     -3.46430485576874      0.01928844401250
