37
Coordinates from ORCA-job input
  C   -3.06964157213875     -0.79469021875963     -0.84529834508428
  C   -2.25239236246033     -1.68008591275608     -0.22909406111250
  S   -2.99960687779663      0.75795034177266     -0.10078541880356
  C   -1.53492053619169     -1.13524175183988      0.87518943300067
  C   -1.85138040617213      0.18147299362538      1.06185264155216
  C   -2.34699774098358     -3.00798959372555     -0.91001091106809
  C   -3.80961099567924     -1.38796171509685     -1.99466286545672
  N   -2.94615984997020     -2.60267202613022     -2.22882607419138
  O   -3.59618221266775     -3.60850096823584     -2.86678623881424
  C   -1.00092388664038     -3.65127281433964     -1.21119097572843
  C   -3.23820852074918     -4.00288879789695     -0.16041899003676
  C   -5.25635968007530     -1.76028632896131     -1.65698940402957
  C   -3.77717856625539     -0.56513484049808     -3.27429497157604
  H   -4.02172150757835     -3.50116092558050      0.41055811565503
  H   -2.66701812503901     -4.64139535713063      0.52058578711110
  H   -3.70410700639202     -4.60144416059795     -0.95687998720761
  H   -0.36598222959423     -2.94580690164620     -1.75099717923620
  H   -1.17855196616231     -4.51651366429190     -1.85490782255051
  H   -0.49164733682080     -3.98024106206790     -0.29778150511783
  H   -5.37377616268122     -2.01514737817039     -0.60233118385886
  H   -5.46056907583649     -2.65297464781592     -2.26339475701488
  H   -5.95604820202927     -0.95509846570717     -1.90033795620353
  H   -2.74626761421390     -0.29920951521263     -3.51517307909319
  H   -4.38269986601573      0.34471266017447     -3.19262135422877
  H   -4.17144304737376     -1.18874778128050     -4.08052108047380
  O   -1.44039623665001      1.07670527819412      1.99660384080612
  C   -0.45085673816002      0.62834160591276      2.90860491139078
  C   -0.51832087204371      1.56075930745534      4.09708305679128
  C   0.91974947134287      0.61766925236099      2.25783368933818
  H   1.21133776599176      1.63598088489912      1.98781897340078
  H   0.91460950354884      0.00953705803858      1.35275077535369
  H   1.66648134196342      0.21205402684023      2.94524151990683
  H   -0.71395578655343     -0.38706503308886      3.23319066134741
  H   -0.31227349214267      2.58675185934439      3.78208478825637
  H   0.21997589556934      1.27345503112540      4.84920362045793
  H   -1.51063012683716      1.53267403275091      4.55014898729975
  H   -0.82902537851148     -1.68761447166374      1.48021335921865
