29
Coordinates from ORCA-job input
  C   -3.27493495294487      0.06282008405539     -0.58462079970011
  C   -2.21280377162313     -0.22340443487300      0.21299037579138
  S   -3.76019158359803      1.69530456317189     -0.44241238618156
  C   -1.76551777284752      0.89275174072933      0.97215833219286
  C   -2.51809307245916      2.01111203259142      0.71448943097453
  C   -1.83578530214605     -1.66415292460829      0.05729376445289
  C   -3.73690136587168     -1.12048752925792     -1.36519973457763
  N   -3.09435731852009     -2.21072397193885     -0.55405137002713
  O   -2.91134115696080     -3.36456614571666     -1.24452277687486
  C   -0.61804649448974     -1.87412625604585     -0.84640501242816
  C   -1.64511207736531     -2.42766018554539      1.36345262257498
  C   -5.23874603193736     -1.36324547362176     -1.32917593823197
  C   -3.24932167707921     -1.10907593106079     -2.81768696855992
  H   -2.46416662575945     -2.20768154102792      2.05137211340963
  H   -0.68359170920600     -2.21369161915503      1.84862902495488
  H   -1.67758420605218     -3.49212860965500      1.11675882333325
  H   -0.54567771912850     -1.10233052470969     -1.61442368798747
  H   -0.80101580071385     -2.84249814071786     -1.33275385296150
  H   0.32075571534468     -1.89131848793456     -0.28491997574325
  H   -5.58652949812939     -1.36219196652258     -0.29461177520989
  H   -5.42444596681999     -2.35226046250291     -1.75531068386853
  H   -5.79030031845973     -0.61082278601239     -1.90366240304366
  H   -2.29240343677792     -0.59513976971334     -2.92093092462844
  H   -3.97245744743926     -0.63653230241818     -3.48879929810943
  H   -3.11411925342685     -2.16853451016200     -3.07176495064316
  H   -2.39326703669820      3.00192490738625      1.12630960282566
  N   -0.65447153885505      0.84269565524641      1.82440172585802
  H   -0.48562513493424     -0.09696339262895      2.15237029351956
  H   -0.72894744510106      1.47667798264824      2.60525642888904
