37
Coordinates from ORCA-job input
  C   -3.58099957694948      1.93531268276731      0.03474096442586
  C   -4.97183052648642      1.94203580938278     -0.16441221794411
  C   -5.65889289603085      0.76867989795918     -0.32168213550889
  C   -2.88348974968770      0.75627270941309      0.07516972570322
  C   -4.97966731563266     -0.46679201324201     -0.27533980541716
  C   -3.57177860686858     -0.46756898615550     -0.06436063458206
  C   -5.64475799006106     -1.70289659108466     -0.42303397733033
  C   -2.86995445653512     -1.69005991279372      0.01969980347454
  C   -4.94366032654260     -2.87560043828330     -0.35052793452692
  C   -3.55667509101952     -2.87042696720011     -0.12022254880833
  H   -5.50105937775832      2.88881481982144     -0.19256522040805
  H   -6.73314105659060      0.77066350940348     -0.47854341301898
  H   -3.04560022329917      2.86738342116580      0.16807541055549
  H   -6.71750117017784     -1.70528371133586     -0.58976609384691
  H   -5.46047577674567     -3.82345979709528     -0.46077953007379
  H   -3.01573463608412     -3.80341632784036     -0.02523391303017
  C   -1.38089729312650      0.73631775017371      0.20810316386715
  C   -1.37869965524574     -1.68991475311621      0.24457228755358
  N   -0.88618649496370     -0.48479272533794      0.80871052998935
  H   -0.84139783283867     -1.93132107324158     -0.69368773825604
  O   -1.07263716655235     -2.82692795271092      1.07749137025813
  O   0.47984348984266     -0.51240069973314      0.82745644678228
  O   -0.94912776472208      1.85238257311489      1.00168828739054
  C   -0.73285165385528      1.00025184091012     -1.14773501060558
  C   -1.22574908421062      1.92519605735131      2.31273040589303
  C   -1.96494496728238      1.14369160324138      3.09406992365330
  H   -2.05707175759083      1.41691658588427      4.13787431619618
  H   -2.42574899792635      0.22956670340276      2.75356191924015
  H   -0.74436361231538      2.80952232089773      2.72328026444847
  C   -0.69965124191371     -2.60575016039790      2.35088418979894
  C   -0.78901270014784     -3.57046682200743      3.26761832784194
  H   -0.26416346025193     -1.62860644285838      2.53461300559995
  H   -1.21052417666526     -4.54237786094042      3.03640771675672
  H   -0.41053984080193     -3.39220652289281      4.26511995867127
  H   -1.14854118276995      0.32235458195944     -1.89735422493739
  H   0.33127642552994      0.79513260126871     -1.01152600177672
  H   -0.90735225572226      2.02954429015018     -1.46439761802873
