46
Coordinates from ORCA-job input
  N   1.22742422095036     -0.32836729108216     -0.13838604042363
  C   0.15763241365718      0.48775014268003      0.45336842482779
  C   0.84612121313562     -1.67149993993097     -0.58423195684640
  C   -1.04372711547691      0.49517416347095     -0.47570986756512
  C   0.71457652114589      1.90641391649778      0.51525085682977
  C   -0.25187045701238      0.06062551951449      1.86961727966457
  N   -1.47384434931983     -0.84744506919248     -0.81003500515662
  H   -0.76163854155612      1.01251554991115     -1.40810806197845
  H   -1.85662814336134      1.05516471079358     -0.01770635922233
  C   -0.40353044957012     -1.55977482367618     -1.46457717805279
  H   -0.13203577512796     -1.04980481464129     -2.40439697802209
  H   -0.72564765030961     -2.57198434036253     -1.70601875382515
  O   2.31249599557289     -0.35831396073292      0.72910671087842
  H   0.99879021063342      2.23648689889373     -0.48783411427658
  H   1.61461666488484      1.87986767666777      1.12978365995994
  H   -0.01737849803120      2.60422851745264      0.93721446090031
  H   -1.01681414199481     -0.71894595596520      1.85606189384908
  H   -0.64312388260453      0.90607698220390      2.44520509975478
  H   0.65915775679449     -0.30821936984221      2.35089973965690
  C   0.58872043864896     -2.75038262777370      0.49745507608446
  C   1.95229434705844     -2.20373466170702     -1.51192721161469
  C   1.84172261045952     -3.20670337347698      1.23168883251907
  H   0.14929741255582     -3.62323263650176     -0.01161112286467
  H   -0.16406872165513     -2.40435022340599      1.20472696306259
  C   3.20717464579425     -2.67604163412225     -0.79354088486777
  H   2.19670964634306     -1.40241143717300     -2.21626572635706
  H   1.53285962779356     -3.04175342203904     -2.09211895230478
  C   2.87922604833575     -3.73274038566388      0.25095567449482
  H   1.57995362188772     -3.98570016336555      1.96082390481688
  H   2.25244702313997     -2.33785099989882      1.75066447168367
  H   2.48922772948176     -4.63583914018286     -0.24533628331425
  H   3.78878789070021     -4.03642427896551      0.78292654202189
  H   3.63112566694573     -1.80142314291092     -0.29353053014952
  H   3.92508147329516     -3.07041707892827     -1.52529211268818
  C   -2.78878029142870     -1.12089576789665     -1.08136508371818
  C   -3.16982680582081     -2.07971976051407     -2.03520734823704
  C   -3.82824537034737     -0.47062731377763     -0.38446008252593
  C   -4.50364135593840     -2.38568264791670     -2.25889247354777
  C   -5.14809643917576     -0.78776686997066     -0.63046452464705
  C   -5.51847602609649     -1.74629576054228     -1.56527302001200
  O   -4.85761066432528     -3.32019037210445     -3.19017578962490
  H   -6.55280975072772     -2.00210086811993     -1.75462880615505
  H   -3.59091055150624      0.25190409696420      0.38344178293724
  H   -5.92033972298284     -0.27795242761229     -0.06344381882832
  H   -2.41775733076662     -2.58068045249799     -2.63294760351271
  H   -4.05114114407838     -3.68866516255596     -3.56050568360315
