30
Coordinates from ORCA-job input
  C   -3.45476190850962      1.92929483567986      0.49580907903148
  C   -4.85084330856062      1.88398522556267      0.33489137958703
  C   -5.49093149796037      0.70675876336780      0.07416113207244
  C   -2.68787013054570      0.79580674691846      0.38119638230295
  C   -4.75155445445251     -0.48951304843167     -0.02595719164212
  C   -3.33698840394570     -0.44642164256703      0.13163221660423
  C   -5.38311551753081     -1.72947802892069     -0.26000081619536
  C   -2.60899091236652     -1.65734931144272      0.06155102951389
  C   -4.65207269688199     -2.88319929241321     -0.32096375099418
  C   -3.25862374786148     -2.84323835609951     -0.15633192875991
  H   -5.41784566011238      2.80495735881599      0.42146514774161
  H   -6.56881913228060      0.66924291007084     -0.04918192704700
  H   -2.95934792614287      2.86776396797929      0.69721547940034
  H   -6.46152206537788     -1.74817576870031     -0.38269564242391
  H   -5.14455099318960     -3.83405513767406     -0.49378860175163
  H   -2.68414415236453     -3.76194718262658     -0.18712018698252
  C   -1.18112899737362      0.79283868284308      0.55787909298613
  C   -1.13091705846520     -1.60991714203253      0.24605628856810
  N   -0.62211538627023     -0.32647999140200     -0.21037537096464
  H   -0.66431810531227     -2.35859925711087     -0.40517942171139
  C   -0.69352892646667     -2.01035380384178      1.68644921338223
  C   -0.46711304291130      2.12508387473230      0.20063092149238
  O   0.78912663070585     -0.36320568253678     -0.05422113559257
  O   -0.93706615470143      3.20128365724225      0.50683585176301
  O   0.69029421537176      1.99190641969554     -0.37195880481864
  H   0.92711291685289      0.92928829010661     -0.31515888703246
  O   -1.36166013759293     -2.73858813328059      2.38232268312663
  O   0.47098818703411     -1.52438716086241      2.02499622694641
  H   0.81020450513068     -0.94738238273996      1.16492130390018
  H   -0.96869613791839      0.67014058966802      1.63917023749727
