30
Coordinates from ORCA-job input
  C   -2.22446945790828      0.03723625374156     -0.29229048682846
  C   -1.16689044335212     -0.74392302087197      0.26264458120632
  C   -2.06195478940151      1.30307200233544      0.15386259241226
  C   -0.42326026934277      0.09474503526039      1.01338693499573
  O   -0.95283185806861      1.35953664661294      0.95977327598860
  C   -1.30723490577104     -2.16654242571520     -0.16349940827838
  C   -3.11793356388349     -0.82659184243631     -1.11791246212119
  N   -2.20591563686708     -1.99214913947944     -1.34823276042717
  O   -2.84897142474479     -3.12846854393476     -1.72071422358299
  C   -0.02511570104849     -2.80870475680945     -0.67315186602249
  C   -1.93106380520904     -3.05812177177773      0.91827328440886
  C   -4.40817129543259     -1.22657531004524     -0.39080279202064
  C   -3.46354626854080     -0.26890365234080     -2.49173752928231
  H   -2.62098102728676     -2.50345130601796      1.55662509426179
  H   -1.17150079575643     -3.52273333602165      1.55431187643006
  H   -2.49051582164940     -3.82240280836604      0.36399813562460
  H   0.42448426747078     -2.17303809455302     -1.43823274663651
  H   -0.29025204030952     -3.76544629800108     -1.13033648007871
  H   0.69582310424431     -2.97728019956065      0.13464405827817
  H   -4.26189276012258     -1.30005952396613      0.68823901019389
  H   -4.65881217496072     -2.21883781734795     -0.78708976575923
  H   -5.22290672039622     -0.52053730367783     -0.57985942617374
  H   -2.55261226312270      0.05290187360296     -3.00022456452117
  H   -4.16673649830612      0.56969632286291     -2.43167587427935
  H   -3.91523915167892     -1.07887272055102     -3.07034605241309
  C   -2.80131996454218      2.56832736776551     -0.03850168089804
  H   -3.64321542908166      2.39186829494236     -0.70825862314380
  H   -2.16891227692873      3.34597119504826     -0.48082374938983
  H   -3.19235223280020      2.96104497298349      0.90680547098726
  H   0.46159120479775     -0.00937009368159      1.61996617706959
