35
Coordinates from ORCA-job input
  C   0.59136852889115     -0.61568669011776      1.88413666518352
  C   -0.44498293176531     -0.35599375968776      0.99551792079535
  C   1.79265952879348     -1.08933434073180      1.12722588362175
  C   0.01100408079303     -0.63271497252688     -0.40642591134545
  N   1.43165758226054     -0.71628743981910     -0.24846303095400
  C   0.40845640941017     -0.44867836899624      3.24536405235581
  C   -1.67592333890502      0.08236857319039      1.45411422403140
  C   -0.83245450870542     -0.02412599840937      3.71365453139210
  C   -1.86546096090022      0.24179435423340      2.82365976998032
  O   2.13122079027069     -1.34684072014897     -1.23230068825245
  H   -2.46928024400896      0.31826538965556      0.75469599802079
  H   -0.99334410574632      0.10496284010924      4.77923166664978
  H   -2.82483838675207      0.58229788766820      3.19984339782230
  H   1.21957160809936     -0.64563277141113      3.93938717660519
  C   3.08491886857142     -0.37246196402098      1.49698695395764
  C   1.98786060477780     -2.60513956919099      1.26295291299411
  O   -0.37540698320874      0.51700271037074     -1.23560815733503
  C   -0.60817775476374     -1.86415797298098     -1.07056492318467
  C   0.57569510923960      1.07005570467047     -2.00191962289645
  C   0.33382894069921      2.16557160209476     -2.72756099552565
  H   1.11476088324362      2.56639210724657     -3.35967291481896
  H   -0.62548081157128      2.67058323285669     -2.70026716029442
  H   1.52607716626850      0.53659642161702     -2.01031893976650
  H   2.93872048432320      0.70816769329663      1.44561608854074
  H   3.84267062660644     -0.65462115048397      0.76245030148494
  H   3.43410685027193     -0.64624403596965      2.49819510560853
  H   1.03080814552744     -3.13112763963211      1.24516229139608
  H   2.50842255040379     -2.86517468197281      2.18881188447635
  H   2.57075941308480     -2.91244997367991      0.38932994747810
  C   -2.04864623621124     -1.73290120731852     -1.52744617388796
  H   -2.37770638639088     -2.64759579690415     -2.03224551117432
  H   -2.15980878550431     -0.90101989316881     -2.22452290439221
  H   -2.73132321636332     -1.56087517028926     -0.68972571184741
  H   -0.51005790901639     -2.69604717032969     -0.36560114088180
  H   0.06718438827708     -2.08840722921883     -1.90162298583757
