39
Coordinates from ORCA-job input
  C   -0.27432650532414     -0.55465596081187      0.36188094348277
  C   -0.14802829256290     -1.94069926819031      0.46486958157615
  C   1.08747747514590      0.05334054336640      0.25937140137732
  C   1.30108042077556     -2.31746105435735      0.38633628206252
  N   1.93391863947545     -1.02289601815642      0.75703081597687
  C   1.67924581442342     -2.71877395624113     -1.05153136208294
  C   1.67767362051775     -3.38577856442928      1.41590294202997
  C   1.26057893917554      1.34540080390742      1.04690566218715
  C   -1.52057412987332      0.03298141803676      0.32488081231882
  C   -1.27503261931971     -2.74447227100553      0.55523630816500
  C   -2.66278480139750     -0.77639109403678      0.40098815906589
  C   -2.53297857899606     -2.15966397705040      0.52349879274219
  O   3.23994072516405     -0.90788231730810      0.37608978105644
  C   -3.97727162385778     -0.13078072038275      0.34966721245776
  O   -5.01946411066546     -0.99416953819319      0.46678900877393
  O   -4.18503454172604      1.05396612019495      0.21832155959888
  C   2.61064783043556      2.00809460015909      0.82983309703434
  H   2.71806434401906      2.33303300764834     -0.21007236460279
  H   3.39916922609347      1.27784307878254      1.02128030265285
  H   2.72806575867198      2.88711263653264      1.47313992084580
  H   1.12759323196465      1.09501849160131      2.10517729741315
  H   0.45266842137704      2.03749919930152      0.77311780335667
  C   1.22011640830514     -4.08946313788116     -1.51319184710625
  H   1.52198548549420     -4.27159118005410     -2.55036594434724
  H   0.13122902241986     -4.19310547814126     -1.47101534347658
  H   1.65120895938376     -4.89008988595797     -0.90591211670419
  H   2.76662705360913     -2.60837324066990     -1.09616514404716
  H   1.27981415805145     -1.95478495506844     -1.72807637114262
  C   3.15393672219078     -3.75161351634913      1.42783408285360
  H   1.06298513248676     -4.28253064790650      1.26042968386373
  H   1.39762701720720     -2.97404744595057      2.39057598111831
  H   3.44107925263911     -4.29974793319390      0.52540127917371
  H   3.38910084885058     -4.38543867332477      2.28967817985035
  H   3.74389657445018     -2.83208549698980      1.45224592556848
  H   -1.64584428187734      1.10597197998447      0.23969099412675
  H   -5.80314266140038     -0.43272513964998      0.41452869597261
  H   -1.18005095902784     -3.82040977992618      0.65132655102025
  H   -3.42358058502794     -2.77192238122746      0.58797686793963
  H   1.32033260872879      0.27253175293894     -0.80925543215213
