42
Coordinates from ORCA-job input
  C   -4.08804049536465      1.91262111727658     -0.39797457485629
  C   -5.47836896849758      1.80456662191957     -0.57298831605241
  C   -6.08985643893031      0.58347856600127     -0.51382922509251
  C   -3.30059277138579      0.81141764264906     -0.15666915387337
  C   -5.32939089122001     -0.57895774603612     -0.26848726276796
  C   -3.92152869541260     -0.46477999462691     -0.06853184214468
  C   -5.93272197857808     -1.85438904587339     -0.22748561706205
  C   -3.15151822696365     -1.63002510394077      0.18331260945948
  C   -5.17013528514510     -2.96753217947537     -0.01107743710755
  C   -3.78529059547176     -2.85178747868144      0.19394993696780
  H   -6.06254941779787      2.69968873891232     -0.76181077349460
  H   -7.16196034925347      0.48753220921919     -0.65699017529116
  H   -3.63166207441878      2.89235061743790     -0.45553376352445
  H   -7.00521792307764     -1.93206706778964     -0.37847615807326
  H   -5.63271181833705     -3.94935824086102      0.01149842469468
  H   -3.20613472458024     -3.74823700705996      0.37794732634202
  C   -1.80121583378706      0.89554138028059     -0.04198352523613
  C   -1.66690838630079     -1.51299299648827      0.40228915707233
  N   -1.31066345720248     -0.18153506383828      0.84082493017204
  H   -1.15265879316957     -1.76765311342356     -0.55308411969743
  C   -1.11980715991284     -2.50794564001832      1.43013384711455
  O   0.05514549024612     -0.09429573415497      0.97276420930543
  C   -1.33604350818931      2.20561971226757      0.60539043735957
  C   -1.17388081693449      0.74996428115953     -1.44744616179540
  C   -1.71906699162919      2.32170730276904      2.06893240449213
  H   -1.21710418183441      1.52903399566135      2.62428729112441
  H   -2.79816989810862      2.21647494021449      2.21505071149196
  H   -1.41495081729820      3.29295813665902      2.47408075595104
  H   -1.71094145072074      3.06190597283895      0.03747120352693
  H   -0.24741803180071      2.20101352780011      0.52610020550446
  C   -1.26025050102743      1.94934376641581     -2.37290736583885
  H   -2.29608719742297      2.26091409815581     -2.54337354019700
  H   -0.82649120802241      1.71256736974115     -3.35071074824967
  H   -0.71461029795763      2.80849369680897     -1.97525157608720
  H   -1.63251370022609     -0.11135227359593     -1.94536551405147
  H   -0.13046043603631      0.48769730160915     -1.22921536387330
  C   -1.65860856026524     -2.29114902393062      2.83216885523995
  H   -1.41433591083611     -1.27733952309613      3.15213399501858
  H   -1.21282322713170     -3.00080238690861      3.53683995967010
  H   -2.74575004439698     -2.40901708929327      2.87609030889762
  H   -0.04188252228100     -2.34076286177760      1.42593445136181
  H   -1.30583190331913     -3.53240142492725      1.08959119359979
