35
Coordinates from ORCA-job input
  C   -3.57969018306878      2.01600931252565      0.24158679106119
  C   -4.98320388514593      2.00184040318813      0.24389957502508
  C   -5.67230253947951      0.82686059777699      0.10894382930258
  C   -2.85957626388446      0.85080194675004      0.12139065962970
  C   -4.97304765808002     -0.39415508692595     -0.01849498672996
  C   -3.54735226096504     -0.37895274893288      0.01107291065051
  C   -5.63929659966868     -1.62589712883166     -0.17914558165724
  C   -2.82897242955360     -1.59306169914585     -0.07628277138247
  C   -4.92470387723041     -2.78830369407205     -0.29738384442608
  C   -3.52212544772548     -2.76976584526832     -0.23676343576485
  H   -5.52431139948300      2.93773570209312      0.34410566016211
  H   -6.75780877984796      0.81419644429443      0.09460594239866
  H   -3.03609037667661      2.94846695286919      0.32635618073946
  H   -6.72460961776131     -1.63499631285878     -0.21038077143737
  H   -5.44076374310688     -3.73386218159259     -0.42945250005329
  H   -2.97599309164957     -3.70348485216694     -0.31164752053066
  C   -1.34798318125464      0.93079530187818      0.01997701510977
  C   -1.33244816646194     -1.57638364066877      0.02676333435815
  N   -0.75454037864116     -0.29615439928589      0.34448221217467
  H   -0.92029403788818     -1.91641759511912     -0.94389431747424
  C   -0.83549569008747     -2.57117812396566      1.07818181536471
  O   0.60553826754397     -0.32036739077609      0.26303730901010
  O   -0.87137349465604      1.96353750931226      0.86110859262367
  O   -1.02914944285427      1.50313076449666     -1.26090412541877
  C   -0.71581872162430      1.58108964973779      2.20106788299106
  H   -0.40210596493535      2.48224372740937      2.73558168772656
  H   0.04924035555874      0.80377443635650      2.28714334708078
  H   -1.65804816554206      1.22388093976891      2.64182701583186
  C   -0.82419463085628      0.53811412243461     -2.25415877011055
  H   -0.57955987591563      1.08035446212400     -3.17166312426070
  H   -1.72591824149423     -0.06323020914622     -2.45010732641217
  H   0.00773853868718     -0.11855063820308     -1.97490668717035
  H   -1.34170898234175     -2.39335209077750      2.03095362479430
  H   0.23242584310299     -2.37939750860630      1.19126544190693
  H   -1.00192587701223     -3.60727112667217      0.77260493488682
