28
Coordinates from ORCA-job input
  C   -3.24064591070321      1.34144629673465     -0.72118704056331
  C   -3.08990836428263     -0.02702807008775     -0.94161014969704
  C   -2.19418605469684      1.86140540153748      0.20558947030406
  C   -1.92750840232793     -0.57561132276380     -0.18591284113294
  N   -1.48050838801361      0.63430522296715      0.45819994195529
  O   -0.43006399872831      0.62136756003364      1.25605021643146
  C   -2.32947658345516     -1.64537318034615      0.84388516298836
  H   -2.61122532168094     -2.58340911159699      0.35879319687284
  H   -3.16944172404365     -1.29060548302868      1.44600833846004
  H   -1.47610551883995     -1.81142994415346      1.50501326747334
  C   -0.84121666312407     -1.16617942439399     -1.10147429430121
  H   -1.16236014757662     -2.11292773007373     -1.54278431108726
  H   0.05695526536142     -1.32252068901685     -0.50012713698224
  H   -0.60311881773801     -0.46284632175920     -1.90308417135627
  C   -2.77740813745705      2.44943809226535      1.50178470124246
  H   -3.50968396152695      1.76064072701188      1.92979417878679
  H   -3.25878777576406      3.41423473878677      1.32345807015079
  H   -1.95801634720598      2.56941982572158      2.21385565347278
  C   -1.28622909463896      2.91962160561727     -0.44491902905400
  H   -1.80943881018860      3.86968843081851     -0.57874441242317
  H   -0.93542042124697      2.56644958922784     -1.41765031933040
  H   -0.41959738835079      3.06141548250941      0.20445194151948
  N   -3.89041066139657     -0.73003468879691     -1.73055634421691
  N   -4.19984368707012      2.06723066043723     -1.27869264581517
  C   -4.86937082774847      0.00537351564208     -2.30133222488162
  C   -5.01872131066251      1.35496504542560     -2.08305647812828
  H   -5.55671868111129     -0.52067257491036     -2.96000192306962
  H   -5.82481226578208      1.90073634619142     -2.56825081761823
