27
Coordinates from ORCA-job input
  C   -3.49158251697301      2.01819413422362     -0.12645137724366
  C   -4.89855576209955      2.01255003717620     -0.07034034113873
  C   -5.59072702753283      0.83324616799169     -0.02604273798067
  C   -2.79311589225516      0.84145869560344     -0.13243099526028
  C   -4.90350345969231     -0.40185509213990     -0.00931896949182
  C   -3.48272337671225     -0.39455713974975     -0.04853502669222
  C   -5.57441287638508     -1.64154700894796      0.05809142642716
  C   -2.77341028430041     -1.61754687338006      0.02125595116210
  C   -4.86589495066840     -2.81226538672345      0.10567618269668
  C   -3.46006132677543     -2.79990999379806      0.10074701160171
  H   -5.43616964790032      2.95548661263798     -0.06899879754004
  H   -6.67608552625118      0.82832243010371      0.00656148903247
  H   -2.94118981806504      2.95034859593703     -0.16752470906204
  H   -6.66010097362951     -1.64929578549451      0.08076252586054
  H   -5.39084319186966     -3.76045000054122      0.16302290518687
  H   -2.90077180242495     -3.72376126015548      0.18062095297971
  C   -1.31045380521515      0.77835688983397     -0.28549927693476
  C   -1.26802461161472     -1.59185781448855      0.04328618735161
  N   -0.77768302855404     -0.30535825505654      0.51354738183201
  O   -0.75852405345152     -1.83823841102241     -1.23865295289205
  O   -0.79222547743614     -2.55381423946184      0.94569461290324
  O   -0.66003890319450      1.95092964351402      0.10938150304428
  O   0.60517331618467     -0.32636026675187      0.27907162743089
  H   0.09168968276119     -2.19590189748830      1.13997523120355
  H   0.10960566352342     -1.36215469247364     -1.12730837190744
  H   0.22771717034331      1.57074169535749      0.28667147418528
  H   -1.08490751981130      0.58816921529440     -1.35639290675437
