39
Coordinates from ORCA-job input
  C   -1.57406118733060      0.73789893938646     -2.44162553231317
  C   -1.77652364099690      0.19900831166713     -1.03452433468508
  N   -0.29207243336783      0.78841488992864     -2.93349318711875
  C   0.81013598258320      0.07075515587228     -2.30615631673228
  C   0.68353951501576      0.01368254349004     -0.79898933050801
  N   -0.62710659756308     -0.55586184423951     -0.49891379241897
  C   -2.20446086991553      1.38672095567889     -0.14731787817183
  H   -1.64284068186328      2.29904598694288     -0.35620654664062
  H   -1.99686284271818      1.04731481787976      0.87315037625561
  H   -3.26427944013615      1.60760776060022     -0.28192787398657
  C   -2.93354341233228     -0.80146567670518     -1.07214157577573
  H   -2.67428334664541     -1.64492503123501     -1.71660629164434
  H   -3.84931041553243     -0.33223598059158     -1.43477284162175
  H   -3.05694014711256     -1.17274986627418     -0.05390460674066
  C   0.95249797176184      1.36951195979595     -0.13405768537320
  H   0.42530892605982      2.18910364983300     -0.62885067819464
  H   2.02022254199324      1.60933120581044     -0.11300036284853
  H   0.57262214024878      1.28440178796438      0.88833115101307
  C   1.71411949577746     -0.98358772551175     -0.28284565200819
  H   1.51994745270383     -1.96773362855242     -0.71684904517593
  H   1.58934282016519     -1.06570723897761      0.79652765072133
  H   2.73281740896017     -0.66568899413756     -0.53171443961700
  O   -0.77844901788387     -0.74146001811503      0.85992126732773
  O   -2.50795193920711      1.17350602184651     -3.09414702340394
  C   -0.07986668182216      1.19468757303940     -4.27443053123668
  C   -0.62092745428453      0.48998769992768     -5.33715767302897
  C   0.71306801300546      2.32522737288481     -4.51948453602704
  C   -0.38585310046591      0.87591355929375     -6.64758464846249
  C   0.95450239562516      2.70237708590872     -5.84174542936538
  C   0.40790408064955      1.98765995434457     -6.89293831075069
  H   0.60430706561906      2.30405783915410     -7.91186265476874
  H   1.57589138470531      3.57136635373513     -6.03646521635162
  H   -1.25038288723633     -0.36276438279668     -5.11388932173102
  H   -0.82102670605114      0.31679462935869     -7.46737053367926
  N   1.27874447881017      3.01321869960397     -3.46162950166181
  H   0.84197860342319     -0.95422472078812     -2.69624231851443
  H   0.82944014870119      2.83304701057445     -2.57485522801875
  H   1.44192393143410      3.99176937163534     -3.62906410836622
  H   1.74058844522280      0.57112397176734     -2.59153543837531
