27
Coordinates from ORCA-job input
  C   -3.64718806326352      1.31219374439074     -0.50713095123477
  C   -3.51108245176362     -0.07162665554098     -0.70234344343972
  C   -2.48817799517475      1.83948030109104      0.26518817870801
  C   -2.25017107611964     -0.57661634863833     -0.09059333400661
  N   -1.97441917957811      0.55622203149416      0.85628304014437
  O   -0.68309711860272      0.62701273830940      1.26761627150080
  C   -2.40208336031272     -1.83718532351199      0.74519752026371
  H   -2.61502304686332     -2.71073722447347      0.12082469820251
  H   -3.20571439410536     -1.70455326244098      1.47216266152259
  H   -1.46664076897919     -1.99266683026209      1.28867251174760
  C   -1.12467025324387     -0.76975300067969     -1.11357755264908
  H   -1.11724122458431     -1.78221514123623     -1.52718324562373
  H   -0.20095712318893     -0.56983632540127     -0.55614689788019
  H   -1.19975470323821     -0.06075176564195     -1.94022577211551
  C   -2.85600665060559      2.74237208450149      1.43401227898450
  H   -3.60729846858332      2.25056394910801      2.05493101177323
  H   -3.23589032559554      3.71346367184666      1.09537604801309
  H   -1.95608414598282      2.89432441395180      2.03536498332326
  C   -1.43709505280154      2.53435521675422     -0.60887693614720
  H   -1.60251379023145      3.61436584182832     -0.67335913159051
  H   -1.41530809707011      2.12791667319956     -1.62163300978432
  H   -0.48089705531457      2.31856041206793     -0.11295716387838
  N   -4.50368072917452     -0.59536502306201     -1.39900505662420
  C   -4.81615934830045      1.63783930008248     -1.13968030494927
  N   -5.29541896307040      0.46685192431165     -1.65302612920724
  H   -5.35097377844455      2.56594778172307     -1.27423822002029
  H   -6.12699283580662      0.33540681622841     -2.19603205503264
