32
Coordinates from ORCA-job input
  C   0.94640908201392      0.55524071904798      1.30982664500625
  C   1.75420006636075      0.39385363952434      2.42772912255789
  C   0.25988517557353     -0.52815726481392      0.77538143716185
  C   0.37303556633829     -1.76780388644181      1.37672972721369
  C   1.90017934972860     -0.87374624281818      3.01841931822951
  C   1.18214255018908     -1.94687759295567      2.49779986070952
  C   -0.20237573225363     -3.07826059331171      0.93992432481843
  C   1.17129658081640     -3.39654982630114      2.89994041254686
  N   -0.03105081840617     -3.86355275183007      2.17134949924594
  C   0.54826671926597     -3.67623049482378     -0.26312054922553
  C   -1.69236283572756     -3.03120145528368      0.62299452205413
  C   0.89514103978996     -3.66842567272038      4.37658242865394
  C   2.45235405130025     -4.13354335121466      2.48087137285785
  H   -0.36158610581137     -0.39542327404329     -0.10393427611326
  H   0.84928818007770      1.53637824245662      0.85690999747282
  S   2.62005546649576      1.76453421864624      3.13842667686735
  S   2.95825060773837     -1.09187114918110      4.42069298851605
  H   -2.23382269930981     -2.58188578430344      1.45796390386070
  H   -2.03650828418380     -4.06114898962240      0.50256711270423
  H   -1.90146656460095     -2.47079428324946     -0.29490806903722
  H   1.61155614957074     -3.43107617284614     -0.24341615078223
  H   0.13338421502573     -3.34141296112112     -1.21822573584560
  H   0.43265867009209     -4.76116618168739     -0.15402034083280
  H   0.06130840982393     -3.05369539488555      4.72249526018454
  H   1.76666306515999     -3.50229468281099      5.01465348031550
  H   0.59527657959247     -4.71787760914325      4.43906682058255
  H   2.85848064752129     -3.74974617255206      1.54293363688329
  H   2.13935657679548     -5.17298746691117      2.32973283112166
  H   3.22973195078823     -4.06925347526611      3.24539000834408
  O   -0.10929152866630     -5.20522423350229      2.00786714209794
  H   3.94148949577983     -0.28328241076155      3.98352574098027
  H   2.34281437312116      2.61663255472725      2.13879085084967
