37
Coordinates from ORCA-job input
  C   -0.28643722506084      0.25179025835138      1.10936695251299
  C   0.68569452611949      0.18616885979361      2.12193391629498
  C   -0.81744185781689     -0.95843894611150      0.61201064133739
  C   -0.37255534171074     -2.16717700315057      1.08933297586120
  C   1.12484723373014     -1.04024064962678      2.60172342615945
  C   0.61082869894640     -2.21561025733317      2.07688117337767
  C   -0.83345065632819     -3.55464576251293      0.77306098363063
  C   0.86890517665655     -3.62874205028368      2.49804931639101
  N   0.27679984820239     -4.33526056324568      1.35043464298782
  C   -0.89648703076393     -3.86584806014993     -0.71662512746658
  C   -2.18668648832328     -3.89191601574254      1.41880524148702
  C   0.20857995040855     -3.97582018155226      3.84662835862710
  C   2.34514360609638     -4.00696234317607      2.56837182695531
  C   -0.82134232202177      1.47959276056862      0.51621511547965
  H   -2.31068808330874     -3.40129954808894      2.38593222329490
  H   -2.17147937122108     -4.97716594989413      1.57092730737326
  H   -3.02918186003113     -3.61117011173869      0.78122422414240
  H   0.05352429531666     -3.60844572511940     -1.18907801365699
  H   -1.70912823003637     -3.32474334051526     -1.21144041434163
  H   -1.05771126490052     -4.94077103506041     -0.82704594015925
  H   -0.76153003886825     -3.48883021750161      3.96114573727590
  H   0.83907282180951     -3.69283887438744      4.69425763614231
  H   0.05731958637010     -5.05899558866572      3.83659897238952
  H   2.84133257983745     -3.73522054486217      1.63457720603396
  H   2.40640545170810     -5.09106056359826      2.68881255435036
  H   2.85416194462604     -3.52218162917074      3.40817123880684
  O   0.03696659543559     -5.64243092263665      1.53674821403615
  O   1.20340230778405      1.31520019550333      2.70738352744086
  H   -1.58431429486469     -0.89652599040444     -0.15039636569133
  O   -1.71178127162848      1.51657899330885     -0.30833130463640
  O   -0.24799317004699      2.64017196458574      0.92117676813646
  H   -0.72304124376455      3.31308827943602      0.41588206719534
  C   2.40783963542714      1.75435561557831      2.12731871448696
  H   3.17929660009498      0.97629161015252      2.18049358148295
  H   2.73585366051221      2.62690630145132      2.69446784494240
  H   2.26138244861416      2.04271733573725      1.08090786738374
  H   1.86208278300055     -1.04830029993781      3.39764690993553
