39
Coordinates from ORCA-job input
  C   -3.35536823727943      1.90544424268858      0.82115722416582
  C   -4.73957072342932      1.89210757899867      0.57873602168691
  C   -5.35635422793697      0.74997181040810      0.15017897518086
  C   -2.59334198037226      0.77818569060766      0.63812387220041
  C   -4.61500482891533     -0.43664669696124     -0.03049594331529
  C   -3.21508445203762     -0.42738792590696      0.22601594076956
  C   -5.23130275098804     -1.63974005140291     -0.43757703781912
  C   -2.48176060210495     -1.63545926632643      0.11091166374424
  C   -4.49883476343930     -2.78645869540172     -0.55642756267541
  C   -3.12242164330294     -2.78625860169080     -0.26746105226980
  H   -5.31459454497103      2.79970489775055      0.72850895181692
  H   -6.42384633391310      0.73378106171520     -0.04627746420113
  H   -2.87531231700824      2.81889108925404      1.15224636492637
  H   -6.29772804836490     -1.63715089126432     -0.64053187259961
  H   -4.97756792140608     -3.71097450387212     -0.86104817803756
  H   -2.56468684310483     -3.71334689543937     -0.32352463704653
  C   -1.09917386178723      0.79381395051293      0.84989578967264
  C   -1.01842440122388     -1.61845152918202      0.47854457168396
  N   -0.46610784169016     -0.29702685783337      0.15834761354615
  C   -0.28610911051395     -2.62808486705919     -0.41012957716930
  C   -0.85916297795662     -1.88169126766363      1.98760509706630
  C   -0.52867258945069      2.09642142574062      0.28622084821306
  O   0.89579026189058     -0.22095432415238      0.28885945571459
  O   -1.81060570442056     -1.77979030498476      2.73830921973813
  O   -0.40277094098036      3.07247926320499      0.98920633371724
  C   -0.20545288312593      2.10539727439751     -1.17597692110506
  H   -1.04372268483675      1.69858400731415     -1.74694555788613
  H   0.64022540061746      1.42554485229550     -1.31255259312624
  H   0.03250780032255      3.11951300730041     -1.49511622338192
  C   0.54027388008870     -2.01578008927164      2.46835702282480
  H   0.98719261735909     -2.93525014524771      2.08604460347633
  H   0.56450767818103     -1.99221864935412      3.55830498914045
  H   1.09572642514918     -1.18323989527223      1.99050716732231
  O   -0.09293825766550     -3.76413941711834     -0.03904559008697
  C   0.10969785936231     -2.14147723018148     -1.76672930472479
  H   -0.71895435478294     -1.60130280417232     -2.22984786653013
  H   0.43164737111653     -2.98204626209534     -2.38049835733852
  H   0.91194057196333     -1.41259016957306     -1.60644562820341
  H   -0.87487403904177      0.81037718923859      1.93124964090983
