34
Coordinates from ORCA-job input
  C   1.13458552740085      0.42919438310311      1.24212128196688
  C   1.93518182300647      0.23329181191974      2.36035250437663
  C   0.46131372648142     -0.64995490840941      0.66593493386610
  C   0.59343021112111     -1.91274760131711      1.20757962535086
  C   2.06919888605246     -1.04768697969501      2.91005374373141
  C   1.40017476735003     -2.10665297519190      2.32964721363571
  C   -0.05958410694065     -3.20408403325816      0.82181345117772
  C   1.33778316285755     -3.54153852886765      2.75795146633993
  N   0.81855899494933     -4.16759991957251      1.52151401447759
  C   0.01080607747524     -3.51880501742052     -0.66689236567212
  C   -1.52369051492793     -3.28974413703199      1.28505074174219
  C   0.41449311693194     -3.75799732150770      3.96849521471524
  C   2.69692250399121     -4.16383204668955      3.05008800303913
  H   -0.16461321732573     -0.48548336657160     -0.20577886527754
  H   1.02041312301274      1.41515966702773      0.80963835285738
  S   2.82221471107812      1.52539580970596      3.17449778294113
  H   2.69551737495520     -1.19982461643584      3.78414620338865
  H   -1.69426878135791     -2.74023630938449      2.21268798505814
  H   -1.69661757718049     -4.35796888064488      1.46551992304011
  H   -2.21859862613433     -2.91239339927937      0.52905461271264
  H   1.04441427513303     -3.44371087327162     -1.01075133720755
  H   -0.62363496536737     -2.85022822172797     -1.25948921122691
  H   -0.32511613006355     -4.54955682455354     -0.80411826050801
  H   -0.41217106012363     -3.04546525391400      3.98907802150578
  H   0.95369655421920     -3.68666358578707      4.91746964062495
  H   0.01169472204441     -4.76936323709469      3.83218809672353
  H   3.36968737941193     -3.99460735865429      2.20689235343496
  H   2.54974887256656     -5.24051524484061      3.16467597797601
  H   3.14668206833176     -3.76175487339027      3.96463976740085
  O   0.28158018743957     -5.40036802805712      1.69442392039213
  C   2.45903161559687      2.96570111168584      2.17573785914488
  H   3.00448105437049      3.79347087445108      2.63084609719034
  H   1.39303308346121      3.20136948351597      2.17854169483697
  H   2.80284116018286      2.83735040115955      1.14751955624418
