33
Coordinates from ORCA-job input
  C   0.57758846304764      0.19878961112118      1.38799164084262
  C   1.42963728762933     -0.01927583262849      2.47349103353314
  C   -0.14065237942772     -0.87928908861909      0.84887964060954
  C   -0.01693466790653     -2.12929135715782      1.41856681904503
  C   1.56368193676876     -1.28237636717434      3.03273564722349
  C   0.82425823780765     -2.33570210165543      2.51190022805946
  C   -0.62328918209253     -3.43023669112373      0.99851980867594
  C   0.85466103073402     -3.78579499236047      2.88258546301557
  N   -0.37409610602696     -4.23941468715238      2.20712497393827
  C   0.04792005095708     -4.01499127753221     -0.25412147042359
  C   -2.12985174581450     -3.37093008587083      0.78202776816446
  C   0.69380286051178     -4.05828601343303      4.37417096468148
  C   2.12634563997831     -4.49940573202684      2.38497466350306
  C   0.41411202934851      1.52819178283501      0.76572792382181
  H   -2.61327631090553     -2.93841387648256      1.66035238392179
  H   -2.48903905466532     -4.39537598107706      0.66016680217101
  H   -2.39346719571242     -2.78713593208875     -0.10568602002134
  H   1.11150147185493     -3.77418394397020     -0.29894192649965
  H   -0.42313145085746     -3.66376822050262     -1.17592629203119
  H   -0.06659362457240     -5.10082548700300     -0.15686131046504
  H   -0.18591881698343     -3.53497962148290      4.75381130361506
  H   1.57721383511919     -3.75289662837992      4.94512495225599
  H   0.53825976114049     -5.13210296837134      4.50086235646724
  H   2.46941953218562     -4.10525753835830      1.42651437668928
  H   1.83852621846839     -5.54706990655824      2.25085784464958
  H   2.94794544847599     -4.42419476074276      3.10290491472638
  O   -0.48176466662006     -5.57024181154117      2.04386973762138
  H   2.05018145590218      0.78457652639450      2.86319926114151
  H   -0.78202203931281     -0.70151014113847     -0.00611843474515
  H   2.24659772270107     -1.44321251947429      3.86014418062239
  O   0.79766739911003      2.59395136727399      1.52000804920867
  H   1.01375107092715      2.27283876742136      2.40208595217062
  O   -0.03573421177054      1.72786550886034     -0.33171323618888
