38
Coordinates from ORCA-job input
  C   0.10240941037455     -0.18691885209147      1.91252615514964
  C   -0.50232780674030      0.52399252143902      0.88167640456994
  C   1.27989516755251     -0.94554400938704      1.37724653837245
  C   0.23282557152444      0.28290049730019     -0.40864970439400
  N   1.49946928596712     -0.24394059809128      0.10285004628193
  C   -0.43592239414902     -0.16003939026579      3.18793609037761
  C   -1.64790544630695      1.26581920163988      1.10717684592849
  C   -1.58823124698163      0.58801658358955      3.42308069452943
  C   -2.19055479864255      1.29486198010265      2.38975656993067
  O   2.27350379326921     -0.91116238936589     -0.79551867557061
  H   -2.09820803676626      1.82200788723492      0.29154980725828
  H   -2.02044365118953      0.61738623255154      4.41853494370469
  H   0.03155030290873     -0.71465249049458      3.99588025847040
  C   2.55011619328041     -0.84094228639675      2.22917703376755
  C   -0.52240217754187     -0.71886218386922     -1.29344761466085
  H   -1.05064811219553     -1.44102775178097     -0.67082940016307
  H   0.22987919051822     -1.25076285540953     -1.88367482844765
  H   -1.25063062778403     -0.22069707605883     -1.93796388553898
  C   0.96510635204145     -2.43647651221110      1.17505168127455
  H   -3.08859904947013      1.87260176042784      2.58566255909673
  N   0.41331566917113      1.53915253561542     -1.15956169570448
  C   1.00465627932083      1.35965358513135     -2.47450034327236
  C   1.19949942772377      2.50634428508494     -0.42459211624826
  H   0.37729237874041      0.72205709872286     -3.09842064513410
  H   2.00247018236045      0.90427229544854     -2.41789785521292
  H   1.06795797443021      2.34026746893161     -2.96095483707481
  H   0.80300706074338      2.63137687449710      0.58414685638170
  H   1.14178231506729      3.47135329211375     -0.94131563462886
  H   2.25547123654446      2.21308643919466     -0.33584804275608
  H   1.60025989726810     -2.74583007883358      0.33594897649836
  H   1.19592225643783     -3.02819098688634      2.06604176303954
  C   3.06733549706491      0.57385186619630      2.39654538771065
  H   2.31207153794745      1.22284474243403      2.84994480362734
  H   3.31501879484916      0.98638035821314      1.41840330558591
  H   3.96022330762266      0.59499259647954      3.03046343209116
  H   3.30679421084450     -1.44904674947291      1.72275669085113
  H   2.36108884414765     -1.30500788168239      3.20599030315053
  H   -0.08099878995308     -2.60438801005116      0.91324813115828
