28
Coordinates from ORCA-job input
  C   -3.43054446297249     -0.20487864666824     -0.73736787328665
  C   -2.48460490028871     -0.55792300486411      0.17063014436182
  S   -3.83310285142659      1.45375394657413     -0.62317082608731
  C   -2.07104320470204      0.52765193757935      0.98224428154960
  C   -2.71363255741765      1.69376109627495      0.66857428039255
  C   -2.16303154937001     -2.01258270336760      0.04292302777353
  C   -3.85531289155665     -1.35585884892099     -1.58566777953908
  N   -3.36938564509282     -2.48846668530951     -0.71939807643792
  O   -3.15898036781160     -3.64015123353638     -1.40240072557026
  C   -0.86161424735947     -2.28531866175565     -0.71759937321264
  C   -2.16432985488212     -2.78431121498551      1.35843447454186
  C   -5.36101626227305     -1.51842933336062     -1.73087310873326
  C   -3.19828472021293     -1.35787788172749     -2.96915304675129
  H   -3.06176519375317     -2.54755940916090      1.93275749271245
  H   -1.27317389256714     -2.58912272024438      1.97205920792358
  H   -2.18108575710150     -3.84859554747058      1.11011113023606
  H   -0.62953008674166     -1.49186836115059     -1.42988128536120
  H   -1.06623211966503     -3.21597426521053     -1.26827931074123
  H   -0.00253775001244     -2.41560301495529     -0.05185045378613
  H   -5.83085600817692     -1.49958944699244     -0.74591738989765
  H   -5.54862287200345     -2.49438095692838     -2.18514126202248
  H   -5.79830317727788     -0.73575191941590     -2.36043854933747
  H   -2.20234747933403     -0.91257036209413     -2.94618272966977
  H   -3.80112360072510     -0.82375620834385     -3.70908244023292
  H   -3.10538676219945     -2.41911560565228     -3.23239759110822
  O   -1.13486045733603      0.43416602655983      1.96912264695972
  H   -2.58123943974421      2.66327802991270      1.12235007071460
  H   -0.87201188799571     -0.49047500478554      2.01234506460973
