34
Coordinates from ORCA-job input
  C   -3.49127067991251      2.02163558097388      0.24019800558754
  C   -4.89330079693066      1.96255034943328      0.15584794441690
  C   -5.52813323870885      0.75526497018536      0.05533260859219
  C   -2.72923966909977      0.88073716353497      0.22519440624453
  C   -4.78423466385905     -0.44474751885487      0.03783156914557
  C   -3.36490001670171     -0.38131588355235      0.12084284614467
  C   -5.40951239892171     -1.70715280993776     -0.04931598441328
  C   -2.60970780395313     -1.58224404928929      0.12346420427377
  C   -4.66092639994437     -2.85069023211539     -0.03857156444709
  C   -3.25892303099419     -2.78780471074041      0.05354137544516
  H   -5.46988181054622      2.88183138633351      0.16811655091530
  H   -6.61038770933153      0.70035975732854     -0.01053703702450
  H   -2.99754699833704      2.98569967728706      0.31391345000480
  H   -6.49223054516026     -1.75165517285396     -0.11721445623383
  H   -5.14596760557857     -3.81938291982079     -0.09798101027721
  H   -2.68237812375465     -3.70466415763086      0.08345972195268
  C   -1.23897597397395      0.93028534438249      0.31372063447491
  C   -1.10607327758180     -1.49840394043963      0.24088823807622
  N   -0.64830078094900     -0.21483296956797     -0.33551877695754
  C   -0.49605884211344     -2.60264372709458     -0.62804301438027
  C   -0.69125134914700     -1.53748679393938      1.71440274738733
  H   -0.92944012916183      1.03761766242836      1.37239583857873
  O   0.70223642645991     -0.10373207535520     -0.44143907457331
  O   -1.49773670028258     -1.29032209943875      2.59708381595946
  O   -0.20098476389864     -3.68147301439414     -0.16366735922035
  C   -0.34734369342206     -2.28161805655082     -2.08077557118301
  H   -1.27153494968106     -1.84493627721143     -2.46613026164767
  H   -0.07216724524655     -3.18193136149396     -2.62967524036337
  H   0.42011921348997     -1.50134151073807     -2.14366123322999
  C   0.77172453626076     -1.59555612709970      1.95199901474611
  H   1.18400987763091     -2.55042729424345      1.62181996232020
  H   0.98936023974459     -1.41334448356003      3.00528120393868
  H   1.19608136226436     -0.82681898544706      1.26457227284396
  H   -0.85489245865823      1.80575427948247     -0.21560582709732
