20
Coordinates from ORCA-job 0optt
  C   -1.59346487642459      0.65020903715519     -0.00000216321274
  C   -1.71585813288514     -0.71635312083898     -0.00003367064647
  C   -0.34493625775104      1.29672727206876     -0.00011097673626
  C   0.80938763510197      0.53894212168377     -0.00015381933769
  C   0.74418633082237     -0.88522397008768     -0.00016417419111
  C   -0.56503087031018     -1.57378903519518     -0.00030860758250
  C   1.90072730583677     -1.63910796615013     -0.00009004086496
  C   3.15551701452069     -0.99909694800722      0.00003225413184
  C   3.28263894577012      0.36271801307694      0.00002296821596
  C   2.12772003580147      1.21953221556224     -0.00019806710410
  O   4.30026309559617     -1.75984130569989      0.00015744692835
  H   4.26158036897311      0.82303320771070      0.00015970221158
  O   2.21693240846631      2.45689522517521      0.00011353754593
  H   1.81737467020884     -2.72077099443681     -0.00010142041117
  O   -2.69909546561711      1.46538562147688      0.00014697149261
  H   -0.28212976041676      2.37597604732897     -0.00008941524003
  H   -2.69156280861506     -1.19181964288433      0.00011902290397
  O   -0.65099366359073     -2.81380442716854      0.00015167953518
  H   4.03924931164571     -2.68527450793641      0.00012914691061
  H   -3.48018528713293      0.90436315716653      0.00021962545101
