28
Coordinates from ORCA-job 1008optt
  C   -1.09102571405267     -0.95345027062172     -0.69278463377803
  C   -0.14359453207995     -1.96720664608694     -0.69004846855688
  C   -0.70023354305322      0.33330178085261     -0.31945411926513
  C   0.62294916871842      0.62020062953244      0.05436896567060
  C   1.60700134431576     -0.36597408404925      0.06740313576878
  C   1.21871426305846     -1.73936162582199     -0.32084921256576
  C   2.93640197495219     -0.08572162081272      0.44026710353006
  C   3.37711665010263      1.22277095108405      0.83185945899522
  C   2.36211084180202      2.22155753251109      0.81799307538473
  C   1.01424850678547      1.99409182161190      0.44979616380015
  O   0.15830789391889      2.91063002370026      0.44543868018360
  H   -2.11516710094132     -1.15381407791582     -0.97732074788022
  H   -0.39660302646997     -2.98287612330339     -0.96958040997343
  O   2.06155188094839     -2.66529034901605     -0.32197301389732
  H   -1.40549619001261      1.15501476666330     -0.30525951507617
  H   3.61261935450273     -0.92698627920305      0.42666295297427
  C   4.72814148043861      1.50316737233044      1.20373106762904
  C   5.14490502507525      2.78255809086256      1.67794873828621
  C   5.75774785948556      0.51849593207306      1.12725495429047
  C   7.06010812816344      0.79414789567162      1.48564412497380
  C   6.45024904134412      3.04192907214964      2.03301371317800
  C   7.44075587571673      2.05761157260428      1.94603910139099
  H   4.42365502907023      3.58193473587182      1.77766707857929
  H   6.70771728630441      4.03318654644563      2.39041090461487
  H   7.80210533667964      0.00734339265275      1.40260032461541
  H   8.46439155608085      2.26714727017982      2.22605394548345
  H   5.52704343430005     -0.47503299587861      0.76929228764080
  H   2.58122817484576      3.24646468591226      1.08479434400313
