18
Coordinates from ORCA-job 1013optt
  C   -1.67051887558309      0.69196242062157     -0.00000015662714
  C   -1.78068119553025     -0.67662159144242     -0.00000005721322
  C   -0.42150484570637      1.31343555106632     -0.00000001313790
  C   0.80656138442462      0.53949144330569      0.00000055954574
  C   0.69682363168109     -0.87003808744947      0.00000070146186
  C   -0.56528003582559     -1.51605682684133      0.00000022690006
  C   1.92054131208403     -1.66869234336449      0.00000046983950
  C   3.15324452192608     -1.04472756524261     -0.00000011230552
  C   3.27224558043736      0.31983242239676      0.00000022531684
  C   2.06481293936274      1.19335629854686      0.00000050288458
  F   4.27294833716997     -1.79940702789713     -0.00000118407748
  F   4.47292239170197      0.89685518386603     -0.00000031931863
  O   2.22692203201862      2.44340088194761      0.00000011902926
  H   1.85021667624977     -2.74639608112343      0.00000045528207
  H   -2.56291696445062      1.30863530737255     -0.00000047157526
  H   -0.33117027268120      2.39095495361407     -0.00000038763491
  H   -2.73236697689238     -1.19030842578041     -0.00000008126788
  O   -0.68626964038674     -2.77736651359610     -0.00000047710198
