26
Coordinates from ORCA-job 1014optt
  C   1.46538410766314      1.43976923823488      1.62491303638897
  C   2.08792951605801      0.21761810502799      1.77792849867182
  C   0.37048987885336      1.61141296867600      0.65136626017223
  C   -0.00271984469340      0.49414257425386     -0.16093761172057
  C   0.60914920797550     -0.78384176381349      0.07514149258130
  C   1.68789764066420     -0.88246664167374      1.03508702364078
  C   -0.99697362432837      0.57490087644258     -1.28139852671424
  C   -1.42033872106307     -0.64442639271344     -1.87162984194343
  C   -0.91501408857180     -1.91022105353903     -1.52884601165233
  C   0.14275028054555     -1.92705798516013     -0.58225013112809
  H   1.74624164069815      2.29649048266809      2.21977280426633
  O   3.10632052297587      0.16601932008117      2.70342267458266
  O   -0.18196943307569      2.73737680037024      0.62055920064953
  O   -1.39968662969252      1.67757191719822     -1.71562469811425
  H   -2.15057692276037     -0.53979824541659     -2.66555900239018
  H   -1.24818168894639     -2.80039038845679     -2.03487659459521
  H   2.16914448429194     -1.84031058249446      1.15401258902865
  O   0.77830158464615     -3.08702351207685     -0.24329148331837
  C   3.72204432299631     -1.07365483702422      2.92201341724106
  H   4.47035898339408     -0.91463539375365      3.69670344854449
  H   4.21419716436165     -1.44584399083769      2.01744203427727
  H   3.00306128695114     -1.82578676564772      3.26324302068752
  C   0.36229996371161     -4.28117983356718     -0.85640372444312
  H   -0.68741636474945     -4.49451945489826     -0.63974836486153
  H   0.98588532098888     -5.07060658795715     -0.44006355144510
  H   0.50138141110546     -4.24153885392258     -1.93983595840620
