15
Coordinates from ORCA-job 1017optt
  C   -2.07909272859684      0.17217577464398      0.00384531744183
  C   -2.11425594040967     -1.22810409276148     -0.00285989560437
  C   -0.78096942727305      0.83955093336917      0.00326474337132
  C   0.39823460696275      0.08826477605092     -0.00390948463518
  C   0.35943950041424     -1.30271663640368     -0.01040347017573
  C   -0.89916898370031     -2.01717012233745     -0.01008170541502
  C   -3.13889435475440      1.08693330629276      0.01134729130428
  H   -3.03972052827702     -1.79498926795693     -0.00293996228430
  O   -0.79359845891333      2.13122427032672      0.00962033137260
  H   1.33847053714751      0.62522339456927     -0.00409746587229
  H   1.26398518820174     -1.89507097705087     -0.01590756900833
  O   -0.94796158464754     -3.26603425821420     -0.01585249826937
  O   -2.97125170833144      2.33947810715160      0.01697899249068
  O   -4.43948776671926      0.64893039265672      0.01291932557472
  H   -4.42340835110332     -0.31416560033654      0.00807604970917
