18
Coordinates from ORCA-job 1021optt
  C   -1.63834838774645      0.71513583476531     -0.00000026166572
  C   -1.76789484197760     -0.66201475126108     -0.00000020256825
  C   -0.39146196032417      1.30839689943707     -0.00000003734267
  C   0.83356049121845      0.51214713509834      0.00000010722380
  C   0.70485172766704     -0.90656447174202     -0.00000008532049
  C   -0.56949091317662     -1.53483714277627     -0.00000011838623
  C   1.97445011788113     -1.62278273685967     -0.00000005647799
  C   3.21331195712948     -1.01352585212609     -0.00000000973121
  C   3.32036496826234      0.36152986614185      0.00000016483798
  C   2.08971582631960      1.17689175367450      0.00000144622011
  H   4.08508500255830     -1.65748655502128     -0.00000021479223
  H   4.26920683852096      0.87757246863105     -0.00000021237813
  O   2.19415262875359      2.43632372792577     -0.00000068531884
  F   1.95873075668603     -2.96228047866408     -0.00000104617069
  H   -2.52302707941882      1.34347657909253     -0.00000037636517
  H   -0.27626485918254      2.38329943425986      0.00000041300041
  H   -2.72507287984470     -1.16444460960772     -0.00000055512401
  O   -0.76531939332606     -2.78249710096808      0.00000173035936
