26
Coordinates from ORCA-job 1023optt
  C   2.32796044909910      0.41898493634470      1.65230051028336
  C   2.83702367681304     -0.80151390924123      1.17162874970329
  C   1.00879130591175      0.87749648381463      1.33311061633291
  C   0.27762537534454      0.14215890083732      0.24992303507424
  C   0.71581276436113     -1.17928582214957     -0.04211542273809
  C   1.96262469469542     -1.61344762848848      0.40876668809402
  C   -0.84038440361704      0.71405356107514     -0.43334374161603
  C   -1.67012740194876     -0.19652092366002     -1.28443598200393
  C   -1.30540922759621     -1.51747008170785     -1.44193504375579
  C   -0.14748712325264     -2.00633320922526     -0.84783133611068
  O   0.40585128974017      1.74864072257776      2.01065335836617
  O   -1.16166316669671      1.91994906386709     -0.38966392544733
  S   -3.05536018967994      0.58641688716596     -1.98681591320400
  H   -1.90654999494596     -2.19610728203234     -2.03353111891018
  S   3.30754719033268      1.24260410701490      2.84195772644643
  H   3.85076118689360     -1.10587617398278      1.38576142459938
  H   2.28711584701984     -2.60697172490302      0.11257966205165
  H   0.11980494154607     -3.04752025666318     -0.98907034437726
  C   2.85411148632461      2.98422421637748      2.67751236679144
  H   2.72226247564815      3.22541242432538      1.62478577231428
  H   3.68887162654290      3.55372575506330      3.08611338716514
  H   1.93313923806945      3.20129331453456      3.20685323742708
  C   -3.78487752706842     -0.76994033552200     -2.91373823879044
  H   -4.67013958902628     -0.36644935100565     -3.40220736248503
  H   -4.08250556378905     -1.58685228305239     -2.25587143768869
  H   -3.09821936072143     -1.14543139136445     -3.67298666752198
