28
Coordinates from ORCA-job 1024optt
  C   -1.30811383941482      0.12306443149141     -0.24575489087402
  C   0.08500958263695      0.12877821736762     -0.07873362660770
  C   -2.04421016846218     -1.10736130661804     -0.22589624615905
  C   -1.30271596837830     -2.31637484541642     -0.02029492907388
  C   0.04473046801265     -2.31071230564601      0.14413367907619
  C   0.80067668762648     -1.10152386326973      0.12337246849011
  C   -2.08967202953971      1.31363380397012     -0.43226540368018
  C   -3.43827554012375     -1.13591982182062     -0.38967371559284
  C   -3.52576725651063      1.29366233054980     -0.62497621568158
  C   -4.20405044971199      0.00288624874712     -0.59548140965349
  C   0.87619068989349      1.32213130825333     -0.09558825536805
  C   2.20193212892950     -1.11488352974625      0.29667557278353
  C   2.95982792648066      0.02580098226238      0.28316079991332
  C   2.30870103860269      1.30612092559120      0.08203718798051
  H   -1.64503053808984      2.29814306941237     -0.42704473973562
  O   -4.13239373026925      2.36716123214206     -0.79368897359853
  H   -3.93398021013891     -2.10039759760137     -0.35713244846200
  S   -5.92057694080813     -0.11128624603451     -0.91879597916262
  H   -1.84889954290200     -3.25344535549957      0.00063405411365
  H   0.57614329952683     -3.24462357614009      0.29629830614978
  H   0.43623691429626      2.29743629044160     -0.24629955986594
  O   2.95557743842807      2.37352376050352      0.05985241549957
  H   2.67569676196315     -2.08048549294794      0.44523402467295
  H   4.03257745002914      0.02200730301794      0.41541516004501
  C   -6.61659441725118      0.80156623787280      0.48396255765445
  H   -6.33917141917598      0.32296297862328      1.42208130107181
  H   -7.70118217017814      0.78504354796910      0.37272734893496
  H   -6.25798616547099      1.82782127252490      0.46002151712968
