26
Coordinates from ORCA-job 1025optt
  C   2.78989613022491      0.22262206959225      1.25919500659626
  C   2.91246435315116     -1.10534783008188      1.54639069861006
  C   1.65174576218753      0.72493641944434      0.46186135509768
  C   0.63030459439093     -0.20861282323910      0.07341529267681
  C   0.82138779279746     -1.61090140249630      0.30725896571542
  C   1.95249006151507     -2.02247413304243      1.08016538019726
  C   -0.65922080534737      0.19480381537430     -0.57337413370442
  C   -1.48272934223838     -0.82394891313432     -1.11278805854261
  C   -1.21649444119168     -2.20427892652113     -0.99126552594047
  C   -0.06177252814992     -2.55086091408337     -0.22019401871566
  O   1.66474159729442      1.93172343542052      0.14891987533426
  O   -1.02240746724095      1.39808667282671     -0.57283512254984
  H   -2.39585302018412     -0.48436998867280     -1.58856296933246
  S   -2.21936805196594     -3.41824336840006     -1.71431631298012
  H   3.50596800443283      0.97360684464587      1.55752407043015
  S   4.24099432189601     -1.81130040253439      2.47888517388808
  H   2.06998484063969     -3.07632828449334      1.30724044278859
  H   0.13845797132204     -3.60159093419451     -0.03401727051373
  C   5.21658209502304     -0.36366926855560      2.90077394129385
  H   5.59546167341165      0.12697194028242      2.00545309227585
  H   6.05367722948352     -0.72208084701446      3.49695965619672
  H   4.63054679197521      0.34210474136967      3.48768882401839
  C   -1.45978937745710     -3.67739700422759     -3.36476892942389
  H   -1.48552816111105     -2.75036519524689     -3.93578894272447
  H   -2.04123001983575     -4.44333457760802     -3.88223044564635
  H   -0.42959000502331     -4.01391112540979     -3.25499004504538
