33
Coordinates from ORCA-job 1027optt
  C   2.18301734175385      0.55278488165502      1.37430250663811
  C   2.34704474291772     -0.83278134624411      1.54024359529423
  C   1.28371225137994      1.07144155861103      0.35654354525193
  C   0.31178672147437      0.13344024991583     -0.25040601419378
  C   0.58894120906647     -1.25652274917070     -0.15767493238624
  C   1.59051273925160     -1.70006895103313      0.72448556677688
  C   -0.85078700767216      0.58529532964729     -0.95865895901991
  C   -1.58401435849095     -0.39686941864268     -1.76713367311116
  C   -1.26087542709090     -1.71703147087535     -1.75960590451823
  C   -0.18129632845311     -2.15802153488278     -0.95142368787771
  O   1.44220931212850      2.23058603213263     -0.13641200217355
  O   -1.30430545870259      1.76326350255765     -0.88690778108046
  H   -2.41667309041770     -0.01434825554542     -2.34777900937195
  C   -2.07108291742678     -2.71845914821484     -2.55031522896096
  N   2.95442751313160      1.44387891652138      2.08255107189488
  H   2.96277042695996     -1.23962594987833      2.32817625717111
  H   1.73252917026499     -2.77158690179513      0.82394017929377
  H   0.08738157116003     -3.20907312518788     -0.95936091865567
  C   2.43589447260542      2.73896774644445      2.47835511215154
  H   3.20591506626655      3.50472381647074      2.35190878534338
  H   2.14361907140191      2.71724114198294      3.53821659090435
  H   1.58507924604200      3.00376930205956      1.86275475705826
  C   4.00821888086469      0.95916417764616      2.93461947373912
  H   4.66870668769212      1.79257434791600      3.18107945847699
  H   4.58742973475851      0.19374586795526      2.42006760304102
  H   3.62730100072607      0.53586772639978      3.87638898746350
  N   -2.87327129591147     -3.64029886329880     -1.73849251831034
  H   -3.45477286411782     -3.09314299274616     -1.11204167218106
  H   -2.23312007466081     -4.16811001231473     -1.15127839210353
  N   -1.18962553265319     -3.56135237345258     -3.35235393879219
  H   -0.55564371872844     -2.98722283044384     -3.89433695620795
  H   -1.74067910562627     -4.13138592457051     -3.98300497654767
  H   -2.78412997989412     -2.14894274961865     -3.15991692500674
