30
Coordinates from ORCA-job 1032optt
  C   2.18547037600147      0.93622206669799      1.48920981732936
  C   2.76542633748163     -0.31822546047967      1.47542318567088
  C   0.95047482415231      1.20106687274523      0.75123193177445
  C   0.31109988876820      0.08817896186409      0.07822366289026
  C   0.96315691238849     -1.18202158914225      0.03326784008099
  C   2.17984715210842     -1.35644877345148      0.76012425347918
  C   -1.02331648078811      0.19224914621881     -0.58707620924590
  C   -1.47408488073082     -0.91188999847078     -1.35514841002528
  C   -0.76529984909733     -2.13620233574789     -1.46585861105421
  C   0.43945885135862     -2.24121136103894     -0.71134390619229
  O   0.53823163294469      2.37293911947397      0.71398891424503
  O   -1.73496248358748      1.20674990583748     -0.42872754588951
  H   -2.43702734180208     -0.80657104104870     -1.83716693586138
  C   -1.28356360069104     -3.19473035018794     -2.25855457635579
  H   2.65214581220422     -2.32945217544444      0.74761562391515
  H   0.98068365422064     -3.17884277182500     -0.71825553328264
  H   2.64115682036048      1.76344915277823      2.01329892243977
  C   4.03288036478130     -0.51412606059900      2.22619247976342
  O   4.61476936107824      0.34303467033119      2.83920346304741
  O   4.49373687453042     -1.77936621431814      2.15999779492524
  C   5.70741883901541     -2.01371074873975      2.85766450134301
  H   5.94161963784626     -3.06389154770443      2.70661249957524
  H   5.58706056330620     -1.79757180366335      3.91898128700269
  H   6.50410077512519     -1.38378109651764      2.46240847921584
  O   -2.31473235117315     -3.18904490894964     -2.92775319707101
  O   -0.48844202441074     -4.33404474295739     -2.22794903784848
  C   -0.97641679931667     -5.40372693212930     -3.00310514283997
  H   -1.96036641705213     -5.72773797671364     -2.65808606483560
  H   -0.25743201811482     -6.21462500609154     -2.89282070311268
  H   -1.06563443090794     -5.12376700072588     -4.05454878308312
