24
Coordinates from ORCA-job 1033optt
  C   -1.62270675085557      0.60322696405421     -0.03973312765769
  C   -1.55220839977057     -0.77827282639033     -0.03705478728138
  C   -0.44902574579302      1.36251093354472     -0.01191854759706
  C   -0.30713304094155     -1.41332562217447     -0.00686386081120
  C   0.88568059032715     -0.68062152584783      0.02143764145823
  C   0.81267564223555      0.75598105825622      0.01891366909563
  H   -2.58499708433660      1.09963720512561     -0.06337861726061
  H   -0.50356847433589      2.44502952574647     -0.01401105698735
  H   -2.45862869014776     -1.37065622123015     -0.05831568244868
  H   -0.25015602228655     -2.49572814246650     -0.00459353361666
  C   2.01678655528754      1.50986335875756      0.04808665426375
  C   2.15961834147707     -1.30812075304699      0.05240021823721
  C   3.28251358218821      0.87900820802404      0.08037850946583
  C   3.35445106506310     -0.55208535270817      0.08240245132616
  C   4.47663898099777      1.59030470419702      0.11214158447810
  C   5.81655314000035      1.02502244289046      0.14784153779029
  C   5.88977609810930     -0.44646935946645      0.14764306107107
  C   4.61293134927238     -1.14149536308658      0.11402987950373
  H   1.96467030191900      2.59010706490088      0.04624406895021
  H   2.21781611135530     -2.38801217236157      0.05420450398644
  F   4.41087218144937      2.91998543515458      0.11061260344645
  O   6.81626493718950      1.76485613308717      0.17645408522833
  O   6.95733936051549     -1.08434101709888      0.17395663406780
  F   4.67868597108042     -2.47114467786103      0.11500211129143
