30
Coordinates from ORCA-job 1042optt
  C   -1.04664707773484     -1.24158733082416     -1.41520135002012
  C   -1.67467805438149     -1.84604847343405     -0.30756214290823
  C   0.31956799308074     -0.84421276110069     -1.46051090697717
  C   1.01839849935362     -1.00909439350929     -0.13507006550801
  C   0.56843631316998     -2.18092505778996      0.60946265069364
  C   -0.89511721511553     -2.37886758205492      0.76762920643470
  H   -1.63384107413988     -1.01669156589601     -2.30135934690404
  C   -3.17739707611154     -2.02006498081361     -0.30196984412831
  O   0.89142017980652     -0.33857991839694     -2.44725750779183
  C   1.37378611411383      0.24093813736790      0.63969646166023
  H   1.20884170569643     -3.03788950720404      0.79964642238963
  O   -1.34136893962144     -3.01722527846584      1.74847045532417
  C   -3.82234445452478     -1.31364199743023      0.89510493829551
  H   -3.46050497800266     -1.75866444253236      1.82227469838927
  H   -4.91255807999063     -1.40454856556108      0.86112749275869
  H   -3.56411371333951     -0.25270554052046      0.89790062218092
  C   -3.59724748903615     -3.49343344470721     -0.34465101509615
  H   -3.55333422449273     -1.54092914550391     -1.21208706491066
  H   -4.68679345444415     -3.58567633674804     -0.39363544916473
  H   -3.23937504042013     -4.00488774180934      0.54875584336054
  H   -3.17033211000752     -3.98727069421942     -1.21967851653642
  C   0.11454653751059      0.85454336387858      1.27241703923212
  H   -0.59345851373466      1.13435495211543      0.48852318199413
  H   0.37005965529551      1.74879745298416      1.84798650756944
  H   -0.38044111478604      0.14078057491327      1.93317674963261
  C   2.10566305586223      1.27693801234915     -0.21067505142137
  H   2.03481010607438     -0.06961744565009      1.45747439880650
  H   2.41535441440234      2.12059201627155      0.41247604453097
  H   1.46006688791141      1.64278466954739     -1.00906177133421
  H   2.98531114760630      0.84281302474437     -0.68703268055182
