18
Coordinates from ORCA-job 1043optt
  C   -2.23647095427025     -0.12819527110775     -0.02200600455388
  C   -2.25308662861471     -1.53783404058326      0.08138553862138
  C   -0.96398661615849      0.55106373211431     -0.25524480321306
  C   0.24774060755696     -0.13888711755608     -0.15216169805155
  C   0.24691492787057     -1.48327126535952      0.20509846074376
  C   -0.96644757269476     -2.22191941520081      0.33841412041675
  C   -3.27907672025669      0.81335137506590      0.08569369363460
  O   -1.00123233938392      1.80714020623956     -0.53051666701528
  H   1.16548986785693      0.41121979537146     -0.30809915015090
  H   1.16683269909101     -2.02555423564919      0.37420616821521
  O   -0.94291491697324     -3.43883433725166      0.65842794287964
  O   -3.10476521096370      2.03471324670796     -0.17504997476732
  O   -4.48828055171215      0.43991226520153      0.54828826940317
  H   -5.04139932921555      1.22960247126805      0.51295627391880
  C   -3.46150630807469     -2.33473292654685     -0.21523489246892
  O   -4.42099088905282     -1.90286291356613     -0.81296271779606
  O   -3.43206186485882     -3.61851804963955      0.18170075045808
  H   -2.50912820014558     -3.80108351950793      0.50604468972557
