36
Coordinates from ORCA-job 1052optt
  C   1.36946879979043      2.26262502412738      0.68470237406600
  C   2.41640884077498      1.35858181865145      0.94344066035457
  C   0.02614619227783      1.80456843480189      0.45404175571021
  C   -0.23311952157362      0.34012672891904      0.31355711855556
  C   0.78112644963425     -0.53231076257609      0.80847021493654
  C   2.04237456198938     -0.01810126792796      1.09028513203407
  C   -1.43623787689054     -0.19981794352008     -0.24568381063930
  C   -1.68250365719964     -1.64642587464229     -0.07336524006010
  C   -0.75178409628150     -2.45378691451670      0.51746966368779
  C   0.46975114202868     -1.92638596235337      0.95474388739099
  C   1.53231840447605      3.76902616733318      0.69523271278155
  C   3.87580940610441      1.70887734548011      1.11155241351015
  O   -0.97075197244388      2.58530370834836      0.47941352961687
  H   2.79449264244997     -0.73021746098856      1.42316393845939
  O   -2.27587341823152      0.46272061582587     -0.90354822546941
  H   -2.62369839703198     -2.01947289599378     -0.45467840309580
  H   -0.94576242819057     -3.51348331249460      0.64346041944011
  H   1.20606117273348     -2.57624508074901      1.41415453241944
  C   2.31104969734650      4.28282718880512     -0.52244060811633
  H   3.34829855740698      3.94484761641879     -0.53675114229656
  H   2.31445855131006      5.37668944167355     -0.53505883045074
  H   1.83561728044906      3.93362782264393     -1.44019936342629
  C   2.07736279975897      4.32779468152255      2.01399884910021
  H   0.51731724257514      4.15349939379688      0.59534692260649
  H   2.00681748835350      5.41934172273273      2.01400562288678
  H   3.11971946105986      4.06416510503803      2.19534243709467
  H   1.48817440939950      3.94958035864170      2.85101351729457
  C   4.39463065884344      1.41547868589315      2.52783731356790
  H   5.44922927200188      1.68930710054413      2.63331163869368
  H   4.30314754647094      0.35177779847324      2.76038471432810
  H   3.81342830092308      1.96650446641549      3.26878424535818
  C   4.76269309548187      0.99687687125301      0.07805401661451
  H   4.00101760753100      2.77593538368357      0.94413721818900
  H   5.81665124241830      1.26695324510371      0.19943001808990
  H   4.44851715708669      1.25614407719286     -0.93415027528099
  H   4.68115338716679     -0.08785332755743      0.18111103204819
