26
Coordinates from ORCA-job 1066optt
  C   2.07274325319289      2.18989188615640      0.84119326265583
  C   3.01529707698494      1.16205762617523      0.88975464058702
  C   0.67334721968793      1.84939279607666      0.57862847939998
  C   0.35218182523055      0.45507659690173      0.16869369484182
  C   1.30625530667947     -0.55096329593681      0.42361483486681
  C   2.62880411913063     -0.16075357802414      0.72788585707847
  C   -0.91090571959924      0.14143777434893     -0.47076464041619
  C   -1.15189841617573     -1.26059000327039     -0.72080635300928
  C   -0.29515957476892     -2.25347751254068     -0.37642359672966
  C   0.94469462741659     -1.96901131414391      0.31620693158216
  C   2.51310925715903      3.54825453257356      1.09326028182987
  H   4.05610066566166      1.39997669502645      1.07455761380680
  O   -0.22499827220490      2.67350983907081      0.76901082401203
  H   3.38735490576809     -0.93071430393563      0.78845389588401
  O   -1.72538763824631      1.01557563794276     -0.88491760766541
  H   -2.08134325926255     -1.48432319464392     -1.23321304860164
  H   -0.55172928475705     -3.28199699209652     -0.58847393820819
  C   1.73196796028349     -2.98396760990678      0.86123073504579
  C   1.80292267389506      4.68362737837448      1.10566391247885
  H   3.58203987751384      3.62501716625827      1.28366247182880
  H   0.73803656216402      4.69104490624157      0.93311472889732
  H   2.30728701107596      5.62332062956616      1.29709646788068
  C   1.51562133878986     -4.35561844731558      0.71035755235269
  H   2.58178072636153     -2.69060031917757      1.46621195154674
  H   0.71546501752872     -4.75944421367288      0.10790937775920
  H   2.17491274049034     -5.06772268004816      1.18676167029547
