25
Coordinates from ORCA-job 1073optt
  C   -0.75121987708242     -0.00884454509566      0.02714772159378
  C   0.64863827980061      0.01353558650366     -0.03683476208003
  C   -1.46657234046766     -1.24441913192724     -0.01619069684256
  C   -0.70555778390844     -2.44445261934465      0.02211007948650
  C   0.65377380486967     -2.43539507993501      0.08198425383106
  C   1.39733402524785     -1.21660178657807      0.05563350600700
  C   -1.57957002867016      1.17679277885544      0.18440689426128
  C   -2.88176842301894     -1.26881527399095     -0.13029249172995
  C   -3.02259093033957      1.16334655282513      0.01196927073137
  C   -3.64183845523323     -0.14100340535956     -0.17382820953885
  C   1.44138958421453      1.19367797110338     -0.31111640745564
  C   2.80164496819552     -1.21205045720943      0.10864940630057
  C   3.55646016700198     -0.05120946820267      0.04556182216393
  C   2.89798733911321      1.19692749284906     -0.21046439796778
  O   -1.06403505156177      2.33205794860852      0.62483826912873
  O   -3.68369294549057      2.21072853699538      0.07868399130141
  H   -3.35352040546384     -2.24400291654340     -0.20685085427637
  H   -4.71607801987504     -0.16020516378556     -0.29245182165036
  H   -1.24010409819421     -3.38911073304340      0.00950980657605
  H   1.20220345462473     -3.37009581492341      0.12914616208577
  H   1.01141957939525      2.08295010429770     -0.75628084589958
  O   3.50842241604673      2.27388813727302     -0.37295530418212
  H   3.29627962305555     -2.17228872399698      0.21496133216571
  H   4.63425536179354     -0.05045277999221      0.12717463387403
  H   -0.11667024405330      2.22087279061692      0.78548864211603
