18
Coordinates from ORCA-job 1074optt
  C   1.61890795171114      1.27348687093811      1.56399632141985
  C   2.31801573412450      0.07796560188013      1.75057502551897
  C   0.48714670524220      1.45847157931069      0.72985393396784
  C   0.09709861244224      0.29127463045829     -0.12886595143852
  C   0.70578657713730     -0.96085606472616      0.19770719612922
  C   1.77419306245559     -1.05114431732911      1.09098931293032
  C   -0.84517381978177      0.39328136490910     -1.20503191866613
  C   -1.32042996240765     -0.85797609121969     -1.83038780735798
  C   -0.80278406902187     -2.07005501191454     -1.45347757331742
  C   0.18231576107733     -2.10799227813084     -0.48069653347560
  F   1.98721230160732      2.32754739977616      2.30685203149555
  H   3.16758975692511      0.02556937091932      2.41174130903349
  O   -0.22013575563905      2.49890109901276      0.79573447541590
  O   -1.27473417360452      1.47419620245211     -1.67108309032212
  H   -2.06660021077317     -0.75838471156584     -2.60551878898950
  H   -1.12585748321177     -3.00374294796938     -1.89778065105254
  H   2.20289120624566     -2.03025871537551      1.26565117474120
  F   0.68374780547137     -3.31396398142560     -0.13563846603254
