24
Coordinates from ORCA-job 107optt
  C   1.81864597241309      2.12003195181282      0.76858944072540
  C   2.66475336552738      1.10069074955437      1.13167944137171
  C   0.48690116105222      1.85035195122323      0.19400795215797
  C   0.11491367372208      0.45082603904575      0.04143179634766
  C   1.03197893511774     -0.56274831734484      0.43489175065363
  C   2.29415311564900     -0.23229799093197      0.97317905919738
  C   -1.17944087829145      0.07040173182268     -0.50642137779103
  C   -1.45092205303005     -1.37555149804427     -0.61531236170835
  C   -0.52614487922783     -2.31213444580555     -0.22171071916752
  C   0.70706136039931     -1.92962358049735      0.29958067487658
  C   2.18728751701100      3.55886284250556      0.92759879519428
  H   3.63892013776005      1.34068678500542      1.54937768437680
  O   -0.21611817619969      2.82115635510456     -0.11617826581175
  H   2.96659705095439     -1.03199117813260      1.26082004546052
  O   -2.06080590928387      0.85402317834475     -0.88320821600778
  C   -2.78283498469077     -1.75511865777327     -1.17487580777092
  H   -0.76346337032548     -3.36821204675908     -0.31906744523008
  H   1.43217643935235     -2.67328253779314      0.60879574069655
  H   3.18455192215862      3.66786331832527      1.35728548854171
  H   1.45866136548244      4.07098098803681      1.56082251466622
  H   2.14637233261705      4.07173290635363     -0.03642405214335
  H   -3.58622454843206     -1.32952389257777     -0.56855243260878
  H   -2.89817973314466     -2.83927902768240     -1.22372880857032
  H   -2.91347981659092     -1.32813562379260     -2.17218089745656
