24
Coordinates from ORCA-job 1083optt
  C   1.93218505471454      1.09665559872279      1.94887861023570
  C   2.70520978379189     -0.09427212727953      1.77616208107458
  C   0.72181827072484      1.26443156995037      1.17174846817951
  C   0.32802880890163      0.22850458131343      0.17961382443118
  C   0.89663890392865     -1.06523205589409      0.33019531015052
  C   2.01659501581066     -1.21177980844968      1.12196504012221
  C   -0.68478542581676      0.46955799902736     -0.83850221167535
  C   -1.22677313309740     -0.70193881051001     -1.52473286014200
  C   -0.74498887259776     -1.96548767626418     -1.26779701115524
  C   0.29550228023041     -2.16254914852594     -0.36803436687270
  C   2.24315431477255      2.15032012524184      2.94357029233461
  C   4.09671192994130     -0.41563976967951      2.09492241943577
  O   -0.07251782735062      2.21528711855135      1.33268218060101
  O   -1.06755590120785      1.59816877608700     -1.17012750746084
  H   -1.99786223501864     -0.51044644325490     -2.25805355893199
  H   -1.16237990046773     -2.81927659141622     -1.78821976926388
  H   2.46154141286694     -2.18921802852048      1.25127182055819
  H   0.68487848784459     -3.15724728903261     -0.19055251058032
  O   3.22916417931832      2.13240044138951      3.67303352773387
  O   1.40053814452337      3.16164155161900      3.05867790916735
  H   0.64718895842371      2.99875417417374      2.40849262571589
  O   4.57277358629942     -1.49738527397319      1.76379066502967
  O   4.87461212554214      0.47349084789140      2.71189328335853
  H   4.30593203792170      1.18392023883256      3.12298173795366
