36
Coordinates from ORCA-job 1088optt
  C   -2.00926245312054      0.65735340064322      0.03281593245404
  C   -2.15489969587343     -0.71921242861933      0.03351363822905
  C   -0.73301830113558      1.20855571547016      0.02421002638989
  C   0.46831418213454      0.38790835175517      0.01591757426444
  C   0.31204274920260     -1.01804180148385      0.01665852135558
  C   -0.97385289693690     -1.60970522114294      0.02517810430052
  C   1.51334548461860     -1.83672418890587      0.00842159124310
  C   2.79594880708161     -1.27374647531666      0.00025724313896
  C   2.93481219959850      0.09332344809415     -0.00030955329209
  C   1.75405993943053      0.98378425374632      0.00760427677442
  C   4.01615435025136     -2.17310773571060     -0.00742805031819
  H   3.90657627773064      0.57234921962068     -0.00649163308962
  O   1.93672223690463      2.23800328624843      0.00673753556543
  H   1.37305410118822     -2.91050459725206      0.00911783871491
  C   -3.22097699171294      1.56922953893236      0.04125904541680
  H   -0.59637260546393      2.28308382970689      0.02356495678967
  H   -3.12296944151956     -1.20499222817661      0.04006373335741
  O   -1.16228149111203     -2.86423506630638      0.02614209066760
  C   4.08173101559606     -3.04173527706545      1.25008897083686
  H   3.22663635190627     -3.71909949997000      1.29202713497058
  H   4.06231153552521     -2.42347924888267      2.14849530676159
  H   4.99352502139901     -3.64467918843356      1.25966717702785
  C   4.06347998557700     -3.04570045735225     -1.26295789414400
  H   4.89342779662709     -1.51934040548082     -0.01477467199317
  H   3.20822068675066     -3.72358818964306     -1.29009626234095
  H   4.97531506638121     -3.64828032694344     -1.28410474167457
  H   4.03045263092650     -2.43040629054125     -2.16300767108658
  C   -4.07931416773589      1.37415521628214     -1.20965942638008
  H   -4.91864593226450      2.07445941242666     -1.22019457726422
  H   -4.48258050225962      0.35990815791275     -1.24054858293792
  H   -3.48696951741094      1.52526378009168     -2.11293699548471
  C   -4.06253012840819      1.37344245371984      1.30339097443765
  H   -2.84807991489344      2.59750887664995      0.03914491599595
  H   -4.90168120796925      2.07370282801668      1.32534670481358
  H   -3.45825442061605      1.52426103849926      2.19878568428585
  H   -4.46535075039742      0.35918581941053      1.33929108221433
