24
Coordinates from ORCA-job 1092optt
  C   -2.79168345444759     -0.90964615747980     -0.22318672019459
  C   -2.27409631179793     -0.48608167220073     -1.47167878141537
  C   -1.88700730134124     -1.37254005210678      0.78845748305339
  C   -0.48425392189664     -1.41520299317892      0.56288327408282
  C   0.01430020529246     -0.98742572799335     -0.69587312463637
  C   -0.85952480253098     -0.51465063789188     -1.73899687641972
  C   0.45457055443963     -1.87587188778057      1.55997439714638
  O   -2.38728799865404     -1.75160215679944      1.91756234616271
  O   -0.40300639751661     -0.14018028031630     -2.84266659807198
  C   -4.17713748902805     -0.91581259903779      0.12568632203152
  H   1.07774542209051     -1.01615828376235     -0.87865497392498
  O   -4.66124767673001     -1.27410156441441      1.19460852961038
  O   -4.98512006919346     -0.46386429783377     -0.88325187785652
  C   -6.36365815726100     -0.45605671555072     -0.57789569699234
  H   -6.57285472489046      0.18802882348863      0.27757784763149
  H   -6.71980645022531     -1.46035544037538     -0.34336181040954
  H   -6.86684093791081     -0.07698363051954     -1.46525234355411
  O   1.66189908509574     -1.93684563796445      1.41458295441181
  O   -0.12098707267853     -2.25813553414784      2.73719693929306
  C   0.78128123132961     -2.71574119591497      3.72225719730467
  H   1.33340161461469     -3.58848332487866      3.37037253058444
  H   0.17496695540760     -2.97565633352841      4.58716623971013
  H   1.50112804157221     -1.93870352995365      3.98346049389518
  H   -2.93693034373974     -0.13375916985889     -2.24703775144254
