26
Coordinates from ORCA-job 1094optt
  C   2.03399730422517      2.17446384356251      0.85884655094416
  C   2.82374540516692      1.06033010815815      1.20158400001989
  C   0.70589182211459      1.91789467293013      0.22123534917418
  C   0.23970577640985      0.54891023944621      0.14730454182641
  C   1.10666157155979     -0.53521090914559      0.46479552135893
  C   2.40157322807245     -0.22536619648432      1.00517763216329
  C   -1.14540219105770      0.19290755699289     -0.27563287597340
  C   -1.44504007212813     -1.17802880241788     -0.51758004836027
  C   -0.53106910876741     -2.24091391497631     -0.29934013541890
  C   0.72282107254342     -1.85433851818775      0.23826942783234
  C   2.54816301197525      3.48401852526017      1.11253813505758
  H   3.80418809165217      1.23780030069998      1.63194440849744
  O   0.07664329158803      2.86801681830136     -0.26205213933616
  H   3.05111372286861     -1.05168881615484      1.27350906513868
  O   -2.03764569111084      1.06258692264355     -0.35010718191616
  H   -2.46742382364272     -1.37649261466947     -0.81419168678969
  C   -0.83299770535868     -3.61283462585469     -0.54184516045352
  H   1.43967615743046     -2.63498251342616      0.48212736648393
  C   1.97572077881726      4.69330563642699      0.92097734710458
  H   3.54923171623266      3.47820084864383      1.54079540152349
  H   0.98681587361096      4.79639664485577      0.50366103832531
  H   2.52497143087301      5.58759596752649      1.18793869515889
  C   -1.97020759608286     -4.14591085425728     -1.06525149939274
  H   -0.04014520537977     -4.30668853041950     -0.26664000670902
  H   -2.80443837705950     -3.53267020659394     -1.38093062241611
  H   -2.07154048455299     -5.21523158286027     -1.18995312384315
