26
Coordinates from ORCA-job 1096optt
  C   1.85569894448884      2.00485598432193      0.71511937445706
  C   2.70221201111802      0.99586009187991      1.08237147567998
  C   0.53561708746409      1.75918678500164      0.13649249257619
  C   0.08674543294900      0.38435707278209      0.05242574247374
  C   0.99297021045743     -0.66533620921806      0.37352766236259
  C   2.27552153162309     -0.33749485940210      0.89430674811284
  C   -1.29345138867921     -0.00421404485972     -0.35802467548016
  C   -1.55706296740472     -1.37904981974161     -0.57079626350114
  C   -0.64342857739384     -2.41999399935738     -0.34759267822456
  C   0.63248463209070     -2.00702357481983      0.17501251722135
  H   2.14148944228070      3.04603610973311      0.80690731173018
  C   4.01835654436211      1.32906095000020      1.64083859851654
  O   -0.11074552022753      2.74011797078943     -0.28007742362037
  H   2.93589863078821     -1.15583218719197      1.15275370995992
  O   -2.19528017223109      0.86545816784674     -0.46024606570892
  H   -2.56860940287768     -1.60837305423674     -0.89060866862987
  C   -0.96632848649062     -3.78342031031182     -0.57261588647657
  H   1.36507382230291     -2.76341289794606      0.43158218176550
  C   4.94294149201001      0.47684650359284      2.07747617594104
  H   4.22768683222955      2.39384670214101      1.69306348606489
  H   4.79735132380145     -0.59557783859275      2.05819818758522
  H   5.88357079930289      0.83527985249332      2.47399020125717
  C   -0.17955873863433     -4.88519914948986     -0.38091697388654
  H   -1.97518711012268     -3.95209014867828     -0.94380730133676
  H   0.84009032777268     -4.82078074461990     -0.02312205087941
  H   -0.55900670098006     -5.87557735211606     -0.59124787795987
