24
Coordinates from ORCA-job 1099optt
  C   -3.29822009736873     -1.28731700427783      0.25208829359758
  C   -2.49641373613595     -2.28775142989954     -0.34886028363697
  C   -3.32974706148927     -1.14260113971712      1.70686211333839
  C   -2.31748782280599     -1.95970841752999      2.39462203978540
  C   -1.14012869411699     -2.38024896393619      1.64413982615532
  C   -1.44250424573343     -2.98145274194684      0.29956640511099
  C   0.17134426591740     -1.91091691966543      2.04158519141783
  O   -4.15412095087465     -0.51776775004603      2.37513602548310
  O   -0.79579732613574     -3.93629198721730     -0.15799818608262
  C   -4.21175765421838     -0.58081793924075     -0.63644016576609
  O   -4.35314436568442     -0.81608075753509     -1.82340520150905
  O   -4.91034192115480      0.41962405764120     -0.04881649242694
  C   -5.79833445921377      1.10635329027356     -0.90495801942234
  H   -5.26242392328765      1.58930546875290     -1.72395106533395
  H   -6.29250633246021      1.85163273601645     -0.28531259273668
  H   -6.53380933864936      0.42522216818273     -1.33598960510984
  O   0.42154303268843     -1.41906409081193      3.12691733643339
  O   1.12041988238075     -2.09447146042317      1.10074751609460
  C   2.42342753095741     -1.69938066142343      1.48381330739590
  H   2.45268370827053     -0.63526876887301      1.72210174179645
  H   3.06343450693314     -1.91553994347563      0.63223098266331
  H   2.75542273156485     -2.25750125856954      2.36032336288054
  H   -2.67870734502909     -2.53208782657572     -1.38759265990964
  H   -2.55169038435382     -2.34300865970216      3.37907012978126
