28
Coordinates from ORCA-job 111optt
  C   -3.62480050341217     -0.02532276286692      0.55743185153960
  C   -2.88412465103743     -0.12608764404013     -0.59122485318950
  C   -3.02231813720656     -0.26081089605094      1.86852523694297
  C   -1.57976224496564     -0.49864243618184      1.87861245597724
  C   -0.86907744197831     -0.59265225603427      0.71052597183217
  C   -1.47681287474004     -0.43256933137578     -0.58551441215194
  O   -3.71123529912455     -0.29925090480147      2.91981746515420
  O   -0.81227716142311     -0.52287658430821     -1.64655606382852
  N   -0.98130542997369     -0.71811187046244      3.14043832608519
  N   -5.01767103932818      0.21526647804466      0.53337124867748
  H   0.19484029212650     -0.78771292047843      0.70391674691662
  C   -5.46871680575257      1.34952717137348      1.32131578868796
  C   -5.64907848990070      0.19166912908801     -0.76077418275853
  H   -6.55546217269761      1.30343003694944      1.42741074369469
  H   -5.21165152500871      2.30396546600534      0.83152947604257
  H   -5.01734951787118      1.30838218657097      2.30728839417520
  H   -6.73103729489308      0.24162932218455     -0.62150255216568
  H   -5.40465549925550     -0.73338448432379     -1.28257318546088
  H   -5.35004920652017      1.03731574800222     -1.40375306218832
  H   -3.32224607769126      0.02685155418927     -1.56829552927317
  C   0.37516432221915     -1.20183352268433      3.13096316670590
  C   -1.15453087156629      0.35143696085980      4.10826513534592
  H   -2.19588686085045      0.65590205191942      4.12955022160075
  H   -0.51615501637682      1.21769914286696      3.86540612068212
  H   -0.87180745165323     -0.01203383591585      5.09941989980117
  H   1.09863105894868     -0.45479689710498      2.76156349218281
  H   0.45478434059746     -2.08952611843541      2.50373066935679
  H   0.65761155933565     -1.46652278298934      4.15211142961500
