21
Coordinates from ORCA-job 1125optt
  C   1.81028955739412      1.19850309556779      1.61456914453023
  C   2.58228059991554      0.04089385418153      1.43608124873410
  C   0.47718836932909      1.27610582830135      0.93535947947221
  C   0.07593747141025      0.20678237471199      0.07941897798661
  C   0.87951533097313     -0.97666974015120     -0.02948384850109
  C   2.13764554170855     -0.99872435216388      0.65992163682331
  C   -1.16794003737224      0.24492238733414     -0.75136788507261
  C   -1.55428920466065     -0.94362674739876     -1.43366338174707
  C   -0.78282115482486     -2.12100817040801     -1.43567681310016
  C   0.43052935920891     -2.09007811361447     -0.75593081785994
  C   2.33249167009368      2.26063530793224      2.47749482500497
  H   3.53809529149399     -0.01104460091464      1.94054922172626
  O   -0.24902722436146      2.27941286359663      1.17397744015218
  O   -1.82565510887632      1.29915642582019     -0.89007673948050
  H   -2.46977944546672     -0.86508935600123     -2.00737492281473
  H   -1.09598677983579     -3.00031751044248     -1.97921818555075
  H   2.75710031085832     -1.88383425025433      0.55294778806141
  H   1.07443581432595     -2.96506319260500     -0.77143410353761
  O   3.42378522075869      2.19181709123621      3.01694250678422
  O   1.55464988494880      3.33912781599787      2.65646025532252
  H   0.71913453297898      3.17395898927401      2.14454417306640
