26
Coordinates from ORCA-job 1126optt
  C   -1.51940774539515      0.80896213623311     -0.04155125328085
  C   -1.78796904885953     -0.59280653415111     -0.01309032404830
  C   -0.26164776204179      1.32224383233150     -0.03976402552296
  C   0.90627577621976      0.47388575982498     -0.00870294019452
  C   0.70192137657396     -0.92006965305043      0.01927711218758
  C   -0.60285508919357     -1.50775293607026      0.01815021679726
  C   1.86984368648406     -1.76842805244629      0.05037912967584
  C   3.12760435054833     -1.25514770302180      0.05211063650690
  C   3.39616661593356      0.14661869051350      0.02355677425558
  C   2.21105164943932      1.06156868815347     -0.00753902264091
  H   3.97724657745853     -1.93061083376149      0.07541747976314
  C   4.74082836050878      0.58160448427553      0.02510512382978
  O   2.37132234579838      2.30340585061253     -0.03178388178337
  H   1.70479556585334     -2.83795352582819      0.07216767338758
  H   -2.36905005757571      1.48442475281334     -0.06486576128092
  H   -0.09660134506453      2.39177067174296     -0.06150268948382
  C   -3.13262890990380     -1.02779658272701     -0.01486843971633
  O   -0.76312415391224     -2.74958950758780      0.04242878956792
  C   5.25337377290768      1.84663127853739     -0.00056702864182
  H   5.46208094479935     -0.23389533175926      0.05034754180928
  H   4.61412929159893      2.71450467600892     -0.02618870777101
  H   6.32715840814019      1.98459887294945      0.00546500317534
  C   -3.64517429895461     -2.29282897154257      0.01055974261379
  H   -3.85388158207573     -0.21229723547504     -0.04011579539753
  H   -3.00593099390775     -3.16070388228625      0.03615352238551
  H   -4.71895773537977     -2.43079894428915      0.00437112380685
