24
Coordinates from ORCA-job 112optt
  C   1.65337409517554      1.30120786310480      1.53268898077946
  C   2.22572710485569      0.07452943141665      1.77738083420502
  C   0.56013011208160      1.46883865351112      0.57887121687878
  C   0.07809046884495      0.26765545815414     -0.10698928359075
  C   0.67853696346147     -0.98075567663611      0.17367863176326
  C   1.76679092623907     -1.04635984721178      1.09628441824123
  C   -1.01632431875983      0.37351968365966     -1.08036372734329
  C   -1.39556087842911     -0.88405003365194     -1.70615019000901
  C   -0.79308280842133     -2.06807153400609     -1.41879045351457
  C   0.25480540664294     -2.17629529631342     -0.47830524584580
  H   2.00240594980629      2.18953748706553      2.04160073975987
  C   3.33799222239726     -0.01245085656758      2.77521511671635
  O   0.11411991058217      2.60655977582142      0.41564362359765
  O   -1.60315370699445      1.41382115722458     -1.37600775338163
  H   -2.21713319564478     -0.83089604934217     -2.40970307827964
  H   -1.18606622272823     -2.96479594710079     -1.88955049822532
  H   2.24148241663696     -2.00668906164056      1.22146641248764
  C   0.81362390633019     -3.49780072757725     -0.16918981864033
  O   3.97813835920035      0.92882782114333      3.14782102140190
  O   3.60155517428774     -1.23814319859787      3.27727054245668
  H   2.96112592354920     -1.88358660372335      2.95296464072277
  O   1.33446880093334     -3.85545153526258      0.86203045868501
  O   0.71492158467105     -4.42875819671960     -1.16523648795429
  H   0.44153180528190     -3.99422276675006     -1.97944010091100
