28
Coordinates from ORCA-job 1130optt
  C   -3.47974074827554      0.60712723987634     -0.02423423228841
  C   -2.89307590964124     -0.37869085584510     -0.93996349332278
  C   -2.52592342386683      1.06260331241053      1.05396170095457
  C   -1.72675213054975     -0.00480836222564      1.55109343220666
  C   -1.71082505868220     -1.28287205624016      0.98313759031924
  C   -2.24173972113127     -1.54851669851518     -0.32303534608799
  O   -2.51139273284503      2.23888965044530      1.48763981895094
  O   -2.13042658361678     -2.65036091205656     -0.91511885991247
  N   -2.98534137251103     -0.22129226879727     -2.31123079483000
  H   -1.11642969715817      0.21441710131168      2.42261585736546
  N   -4.84639816953613      0.47922458354747      0.30254132791295
  H   -1.18422763853468     -2.09996479727092      1.46175067033110
  C   -3.56656956963716      1.00449044085340     -2.81490824280593
  C   -1.93269286320651     -0.74554030753089     -3.16222170799054
  H   -1.59201085856938     -1.69812925080042     -2.76905018449486
  H   -1.08932397458489     -0.04078393156758     -3.21489835607319
  H   -2.32418193087786     -0.88788967964113     -4.17220134522190
  H   -4.45113157378050      1.26688679104498     -2.23821810466244
  H   -3.84226462135588      0.85731321538536     -3.86175474303954
  H   -2.86170124036595      1.84608960581619     -2.75520409412619
  C   -5.28659286982071      1.03543692898267      1.56553774138638
  C   -5.52570790007225     -0.75250189821298     -0.05093073801779
  H   -6.37311752097295      1.14980384091285      1.54684175074175
  H   -4.81347925711328      2.00205346490443      1.72034921503998
  H   -5.01854536707098      0.38397982081505      2.41091641694795
  H   -5.26562722838799     -1.57504385981176      0.63207046190714
  H   -5.25173886643097     -1.05983971842621     -1.05938737662040
  H   -6.60535117140377     -0.59027139936443     -0.00732836456973
