24
Coordinates from ORCA-job 1133optt
  C   -1.54934484123184      0.68054184731412      0.44598863097852
  C   -1.80400174160682     -0.64989966133753      0.09919495689718
  C   -0.27378614712862      1.18396630252412      0.49200099480707
  C   0.88247570909242      0.36501685999783      0.18315502149932
  C   0.66143859763233     -0.98290834525132     -0.17244531445467
  C   -0.64552864650938     -1.52673221706322     -0.22765726838764
  C   1.81770408545724     -1.80187473468402     -0.48126177758196
  C   3.09326227282492     -1.29847699810110     -0.43519614219705
  C   3.34792076505920      0.03196621922528     -0.08837325369301
  C   2.18944496116859      0.90882433379710      0.23839660295411
  H   3.94295517050643     -1.92685450330050     -0.66942025516752
  C   4.74279211280705      0.50841495452255     -0.06228773565494
  O   2.39439579107830      2.11764566448923      0.55840804630086
  H   1.63894131881018     -2.83379275136769     -0.75192143508287
  H   -2.39902374305849      1.30891958062653      0.68026446144065
  H   -0.09505264962878      2.21588759495705      0.76266648232399
  C   -3.19886929110015     -1.12637006841460      0.07321730408087
  O   -0.85046210535752     -2.73556434340530     -0.54762990040376
  O   5.68305642469851     -0.20797772854044     -0.33464721750528
  O   4.93041528549550      1.78716314851940      0.27985567198043
  H   4.03501987914192      2.17970777099600      0.45613473755290
  O   -4.13912469452644     -0.40999314113614      0.34564315350600
  O   -3.38650125648274     -2.40513193664233     -0.26887831793010
  H   -2.49111725714192     -2.79767784772499     -0.44519744626309
