34
Coordinates from ORCA-job 1135optt
  C   2.34127022053590      0.44865739598824      1.40190435537823
  C   3.05247349291661     -0.66304923669385      1.05753951822840
  C   0.97840255729228      0.71230543286700      0.83301641109929
  C   0.43282319470642     -0.25945392434948     -0.06108698456307
  C   1.23466249523326     -1.32751471942352     -0.54494640955588
  C   2.50857136061691     -1.55357862946757      0.11402789246024
  C   -0.97639860165697     -0.20780952605928     -0.53872280602836
  C   -1.33334710418963     -1.00665622147391     -1.65490459254766
  C   -0.46602966303373     -1.91091345927257     -2.25407672672345
  C   0.80377774363438     -2.08765406662468     -1.63901625074227
  O   0.42187203211624      1.78945010587965      1.15876927760251
  O   -1.84970701126439      0.45195659171579      0.10266672541711
  H   -2.36147545570778     -0.90541142350102     -1.98512245406912
  H   -0.75637174521077     -2.51065166811770     -3.10349254485020
  N   2.71314275628784      1.45975815382554      2.27654385015525
  H   1.48626828208011     -2.81030060765755     -2.07333843025169
  H   1.98889103155438      2.17227515285327      2.34044184203736
  C   3.82784111231265      1.68484339669630      3.00933206766537
  O   3.99210350276864      2.65390990258155      3.72087959009762
  O   4.75059776787097      0.71360589103682      2.87185501511512
  C   5.94541898300411      0.91683780654953      3.60785814719107
  H   5.73587405981438      0.96291206321586      4.67629713609508
  H   6.42955952317944      1.84516656029321      3.30624694638889
  H   6.57958592634065      0.06459937215195      3.37833717778902
  N   3.12822130047546     -2.77950657816291     -0.15823536191797
  O   5.34659723505027     -2.42673268269196      0.35307897418485
  C   4.42516445457362     -3.12724413208361      0.00542546405653
  H   6.56896804592070     -4.37358585048874     -0.87262229497645
  O   4.57822672571919     -4.44768580906552     -0.30237872758767
  C   5.90980309302189     -4.92004993413499     -0.19809510694383
  H   6.28185733335358     -4.80606511910440      0.82003473802596
  H   5.87558938097456     -5.97134465322553     -0.47260571253584
  H   4.01825556430941     -0.87596505105502      1.47976649167899
  H   2.52443040539921     -3.51606453300078     -0.49660721737354
