18
Coordinates from ORCA-job 1139optt
  C   1.62215043542705      1.31806235236861      1.59175660768493
  C   2.32012893568216      0.11122799198859      1.75718646569300
  C   0.50115066414776      1.47745621859981      0.73763182334753
  C   0.09538131734857      0.30976733081233     -0.11923242559455
  C   0.69854213563831     -0.95948719553691      0.19385211998919
  C   1.76302834826841     -0.99367569367871      1.07946347590091
  C   -0.85292263064245      0.39570818092403     -1.18742845596923
  C   -1.30104121137211     -0.86533519176558     -1.82106087116481
  C   -0.77853059451339     -2.07607037559138     -1.43483012362015
  C   0.20343034215738     -2.14943688500323     -0.45247987054028
  H   1.88339847719843      2.19479206797196      2.17301388634028
  H   3.14467786303623     -0.02311822133714      2.43868127664167
  O   -0.18246026786148      2.53114958522184      0.74201470202820
  O   -1.31875251473034      1.46420451795857     -1.64703521654384
  H   -2.04205474291138     -0.76734491910057     -2.60227690452902
  H   -1.12282797182117     -2.99245540368957     -1.90213169199442
  F   2.32520201835524     -2.20146574082615      1.31724577542789
  H   0.61067939659275     -3.10762861931648     -0.15974057309728
