20
Coordinates from ORCA-job 1142optt
  C   1.67453128913497      1.24747605067510      1.63721976282369
  C   2.28207831855538      0.04849068363955      1.84982273305557
  C   0.55289801246189      1.41870670978049      0.67594649609469
  C   0.13219070417128      0.27802877387398     -0.09535160350175
  C   0.73044662886189     -0.97489561444367      0.17158661701813
  C   1.80561163492369     -1.06192378089718      1.12343210058246
  C   -0.88538121190140      0.36208946895039     -1.16083266580135
  C   -1.32423917896890     -0.87505543755133     -1.75750886343205
  C   -0.78230220667543     -2.10972304540612     -1.44420518813059
  C   0.26672168957630     -2.13085456246919     -0.49244819232942
  O   2.00718060442296      2.37856986247099      2.27355659675065
  H   3.09759816213770     -0.04146670025008      2.55506429038628
  O   0.05372931848586      2.58247544342373      0.65875223073194
  O   -1.32304483833835      1.46790902764779     -1.59685910510336
  O   -2.30080081498682     -0.75641593626351     -2.68951721242238
  H   -1.16317253692272     -3.01941283576225     -1.89218652546791
  H   2.26570541117068     -2.03165300551658      1.27276414189822
  H   0.73334987284757     -3.07670761939239     -0.23944053765989
  H   1.35746090943749      3.01892408636148      1.90185305082830
  H   -2.45379176839407     -1.63218156887119     -3.05821812632125
