30
Coordinates from ORCA-job 1143optt
  C   1.88434824873464      0.44333706219704      1.86507936886841
  C   2.54199416284403     -0.73442975754545      1.43717895631762
  C   0.73189684744200      0.97419128527060      1.24744360328841
  C   0.11369833460187      0.19616850873478      0.13230542560316
  C   0.75761021852501     -0.98877735966828     -0.30512996874837
  C   1.89453816589145     -1.48991839782728      0.39497342162146
  C   -1.14815833336153      0.60350535678476     -0.47476595989422
  C   -1.60572065228414     -0.13213445641686     -1.64914966553185
  C   -0.94156471033684     -1.24248288760418     -2.08101931540665
  C   0.20763874996718     -1.68679777771329     -1.42052464453636
  O   0.27948531157417      2.09604440421575      1.57139377142348
  O   -1.87435665396674      1.50407215235894     -0.02763598676580
  H   -2.51639708768764      0.22632602006956     -2.10995093027967
  H   -1.30188070317111     -1.80137594025349     -2.93661535945084
  C   2.32403420308732     -2.88172025168001      0.12258122205233
  H   0.71538200229622     -2.56845965295149     -1.78056965242198
  H   2.32561898409566      1.02805189657365      2.66118352371502
  C   3.82684254076755     -1.02080474922496      1.98008834721199
  O   4.37768465542447     -0.43611634772657      2.91016400127841
  O   4.49548259657342     -2.04213714440052      1.32419620752604
  C   5.76371260376272     -2.35048915091028      1.85348459714249
  H   6.17239905002226     -3.14065509505397      1.22469694165731
  H   5.68663071204559     -2.69544525411786      2.88705832040456
  H   6.42234998675490     -1.48079989300415      1.83726389864475
  O   2.62908106755702     -3.34769516326395     -0.95013312868364
  O   2.29011931459265     -3.63354581705486      1.23966870581290
  C   2.90544186520329     -4.90301805129383      1.12338731462539
  H   3.94742545734644     -4.78313542399600      0.82239789383468
  H   2.39363010995865     -5.52166081796751      0.38567015027738
  H   2.84566295173938     -5.35859729653013      2.10869894041361
