26
Coordinates from ORCA-job 1144optt
  C   1.94964262354229      2.03349186901582      0.43399617832727
  C   2.89830399732916      1.12831320033834      0.87041215418661
  C   0.66019300373708      1.57811837658242      0.08922005584208
  C   0.44082475778877      0.17767729649025      0.14402223775646
  C   1.42722336690828     -0.75025406309142      0.50894383808784
  C   2.66935675457264     -0.25463068916282      0.96749852244722
  C   -0.91430068503415     -0.18623368275754     -0.17310182954221
  C   -1.28912828812475     -1.54411551426284      0.01543843021516
  C   -0.35111482260661     -2.49663824938131      0.29757780224248
  C   1.07877190558136     -2.16804250311732      0.27096289902731
  H   2.16523072262644      3.09243302629339      0.37995373320043
  H   3.86469814417456      1.50429851230717      1.19027636068558
  O   -0.29759905265183      2.35106503835240     -0.27852564490552
  C   3.70637493245785     -1.00946030053081      1.68256738472666
  O   -1.74317029386500      0.75060990154366     -0.48474733082334
  H   -2.34043344380427     -1.79739329993267     -0.05428265280087
  H   -0.65155428576000     -3.52182569921969      0.46120470773268
  C   2.02724052311165     -3.11227729239581     -0.10519483766125
  C   3.57207528433117     -2.10879273877702      2.42297241912152
  H   4.68852522493183     -0.54140257665070      1.65526919149135
  H   2.62446373799853     -2.62209047622037      2.52040870853698
  H   4.42471197187641     -2.52880956869614      2.94162701839020
  C   1.76424488167002     -4.44339569711968     -0.39952689205506
  H   3.05598719742820     -2.78083615480399     -0.16253562034668
  H   0.76776277104211     -4.85920699302481     -0.36613281004963
  H   2.56456907073817     -5.10507172177843     -0.70103402383325
