28
Coordinates from ORCA-job 1159optt
  C   1.88192128612290     -0.43076141539718      1.85746530262683
  C   2.50264703620680     -1.59849177400150      1.56548206525471
  C   0.88869000477012      0.14630594596990      0.98008293494055
  C   0.43192574594898     -0.71805532458578     -0.13461670785490
  C   1.05062518731280     -1.95455168320126     -0.38533378191724
  C   2.18468303956452     -2.36479017356598      0.41039262998988
  C   -0.67677516456063     -0.24543757617626     -0.99013833894766
  C   -0.94137458431063     -1.01329934732070     -2.19123641048580
  C   -0.38664786949765     -2.24096691279722     -2.37839084613988
  C   0.52280064023933     -2.78304101644141     -1.45536726736164
  O   0.48330627623357      1.29625287964650      1.15099181621632
  O   -1.38474890426285      0.72540126245854     -0.72632723867989
  H   -1.67001982280827     -0.60259639356627     -2.87772651346380
  H   -0.68549449555699     -2.84493096437701     -3.22420539214325
  H   2.15784516358320      0.15983291289924      2.72183314828281
  H   3.30260913350077     -1.97326875777714      2.19409390831319
  S   3.20700111491827     -3.64326247163144     -0.05591246245825
  S   0.90163527033013     -4.50817527835079     -1.52762945131656
  S   5.46328912660653     -3.46936482546846      1.58545989458419
  C   5.91529941517317     -1.96633999317806      0.69124372809823
  S   -0.78148444915222     -5.31455569403277     -2.45487967045128
  C   -2.02748234955135     -5.06094438427036     -1.16994962631050
  H   6.85861217104129     -1.59776674292607      1.09860906032268
  H   5.15779461659351     -1.19144991377306      0.81435733023844
  H   6.04590785764253     -2.16874606709521     -0.37063574685412
  H   -2.94278241307703     -5.54607277468880     -1.50854540123249
  H   -2.21030977247348     -3.99607642785911     -1.03195267804589
  H   -1.69499326053741     -5.50819708849211     -0.23576428520464
