24
Coordinates from ORCA-job 1165optt
  C   -1.70324081022444      0.56015238089560      0.00000262017700
  C   -1.81293276916306     -0.80640797649241      0.00000227539089
  C   -0.47376390629501      1.22858515886823      0.00000006379737
  C   0.78060752499173      0.45347332897195     -0.00000102090861
  C   0.66081703433093     -0.96165358280661     -0.00000106930230
  C   -0.59141654570413     -1.62811897453584      0.00000064336546
  C   1.88136582454398     -1.76577575148942     -0.00000262506845
  C   3.13476478083621     -1.17883615232570     -0.00000194106374
  C   3.28726835916935      0.19171849694206      0.00000014372595
  C   2.06926158196951      1.06372767151384     -0.00000159598576
  H   4.01745292440009     -1.81277339194938     -0.00000166638180
  C   4.61897587013412      0.86192860905715      0.00000174656010
  O   2.27339314557380      2.31361192775061      0.00000586639362
  H   1.76068551012252     -2.83987517245052     -0.00000389723332
  H   -2.60273999106999      1.16938291305578      0.00000324689240
  C   -0.47404643673419      2.72540898785914     -0.00000258204238
  H   -2.76437061681024     -1.32037645229495      0.00000350592866
  O   -0.69674631382296     -2.89124339116617      0.00000009824667
  H   5.42216233287806      0.12290836567990      0.00000150059464
  H   4.73439170920793      1.51263391060452      0.87137857156139
  H   4.73439253012753      1.51263542444411     -0.87137384155160
  H   -1.50070924178928      3.09771994321989     -0.00000247488925
  H   0.05674804527249      3.12516021486393     -0.86605526175051
  H   0.05674945805504      3.12516351178428      0.86604769354361
