22
Coordinates from ORCA-job 1172optt
  C   -1.17643394316516     -0.02128549076911      0.14743262949609
  C   -0.95319836987414     -1.37277287055599     -0.00943664455887
  C   -0.12039847059218      0.87742663153741      0.23857532357532
  C   1.26136935806036      0.42899543448107      0.17171600652986
  C   1.49844953212592     -0.95889903016244      0.00963087855164
  C   0.43153781626234     -1.88948632743147     -0.08438523573268
  C   2.87629454249786     -1.42470064234668     -0.06161827518814
  C   3.93769872348162     -0.54260789871116      0.02978379492574
  C   3.71698217436783      0.81976623793153      0.19181354552644
  C   2.33457445411946      1.34390950187117      0.26575272795636
  H   4.52476961681835      1.53491190683816      0.26908733403316
  O   2.17968718331855      2.59378704538599      0.41105367331953
  H   -2.19237496981396      0.35597760067740      0.20188021402247
  H   -1.75309705475162     -2.09660354349286     -0.08315729133042
  O   0.61110939167695     -3.13329504855577     -0.22885155262326
  S   5.63519723209769     -1.05384802969942     -0.05070281300151
  H   -0.29544717324193      1.93752960177319      0.36189086444979
  H   3.01522359834743     -2.48796288689050     -0.18813681498386
  C   5.50669958234105     -2.83817410267896     -0.22477219028499
  H   6.52843429089789     -3.21187407838411     -0.26837846301545
  H   4.98557015466832     -3.10921448261789     -1.14169539696659
  H   4.99747233035733     -3.28099952819951      0.62986768529933
