20
Coordinates from ORCA-job 1177optt
  C   1.58898067461334      1.30453790402339      1.63273569502398
  C   2.19541311615518      0.09267852720991      1.80055654252956
  C   0.46950785641717      1.45650318361293      0.68170162907514
  C   0.09144922349911      0.32763106292434     -0.12015379408170
  C   0.71337022534177     -0.94635062554140      0.12070939647022
  C   1.78296701548546     -1.02820773034475      1.07787082383894
  C   -0.92894132279504      0.39217791278047     -1.22195178059434
  C   -1.36466547370170     -0.83376193890846     -1.78897411358491
  C   -0.85290024587372     -2.09017266555860     -1.43385862001834
  C   0.23732625591718     -2.08599631478915     -0.51844652003122
  H   1.87961718469554      2.17431424763764      2.20377493456338
  O   3.22406872319765     -0.01413415866703      2.71056407324180
  O   -0.10523464380125      2.56772593168311      0.65641317307219
  O   -1.33258914951238      1.49436122037334     -1.66123911630714
  H   -2.09937758502571     -0.73610539789817     -2.57954060023539
  H   -1.07621105570314     -2.98431053572909     -2.00248373979189
  H   2.27160175795412     -1.98272319736096      1.23800049573956
  O   0.84760820889077     -3.27059662584647     -0.21616524277768
  H   3.53676153128173     -0.92315242176615      2.70230229811511
  H   0.31366770296385     -3.97019837783488     -0.60668553424726
