26
Coordinates from ORCA-job 117optt
  C   1.32507852532974      1.19442695890086      1.61090158427234
  C   1.97525650818935     -0.02910432202063      1.78645961502004
  C   0.18283145451103      1.35236645095862      0.69569259032306
  C   -0.12850263037141      0.21131156710087     -0.14459590612251
  C   0.57539975995534     -1.00597939139394      0.04528812291149
  C   1.60603653651259     -1.11642314494558      1.02369359876562
  C   -1.17172901518317      0.29222017167320     -1.16635544333975
  C   -1.40652144269295     -0.93570495877650     -1.92201200042413
  C   -0.71080492139988     -2.09164977848643     -1.70165068285115
  C   0.28549085511137     -2.14507211612661     -0.72048085973030
  O   1.72508291371205      2.20448001294463      2.41079158449565
  O   2.96893812244807     -0.05311000288830      2.73091942481639
  O   -0.43438580633309      2.42526777615011      0.72211240137861
  O   -1.83922105867661      1.30080532174932     -1.43020872485853
  H   -2.18076044060653     -0.87475625427337     -2.67765718141260
  H   -0.92845306810264     -2.97706126655031     -2.29076276843583
  H   2.10172943015819     -2.07084338894154      1.13028907915145
  H   0.84187098841409     -3.05790230531221     -0.54403104813794
  C   1.70996653970425      3.53443143506915      1.91063946724124
  H   2.49929101642344      4.05762929187233      2.45326117663467
  H   0.74502159924542      4.00621591499161      2.07463084623707
  H   1.92146904072400      3.55071488331335      0.84112736061195
  C   3.61727266457567     -1.27715490248411      2.93705401292797
  H   4.35147178651160     -1.10848539847833      3.72283731785607
  H   4.13003481584398     -1.62044958859225      2.03219000261857
  H   2.91659582599606     -2.05488296545386      3.25877643005049
