26
Coordinates from ORCA-job 1189optt
  C   2.36458987151106      0.48556121113856      1.69622679044314
  C   3.09631553744974     -0.66073453640071      1.32778532190012
  C   1.01374017244566      0.70267698079794      1.27074120798064
  C   0.48882543477336     -0.19929416023613      0.19539989509869
  C   1.15250925317216     -1.45568672856482      0.02380397452820
  C   2.41995167100239     -1.65001097153771      0.57638821107772
  C   -0.65675223610825      0.12594476274926     -0.59516153326632
  C   -1.26392867608424     -0.94675427438544     -1.41437222228464
  C   -0.69650255478690     -2.18487006318534     -1.46368177859441
  C   0.49561660849155     -2.45692431126999     -0.75930005962889
  O   0.23299410272497      1.49902935680023      1.85042278969377
  O   -1.16766331484577      1.26777437602602     -0.65747687472069
  H   -2.15502317762430     -0.66807329773484     -1.95672029567432
  S   -1.34264730078137     -3.54576333277056     -2.39482361437788
  S   3.11616286808098      1.52262844415297      2.88283216750301
  H   4.12753687121117     -0.78179051440158      1.62431440990664
  H   2.91933294329233     -2.59244273963221      0.37120177063526
  H   0.93194937538807     -3.44828562370089     -0.81767484356261
  C   2.39021505955612      3.15157499069985      2.59232622151330
  H   2.28146810784934      3.31356077248123      1.52207326896994
  H   3.09437371197535      3.87309363277169      3.00674996409396
  H   1.41728491227455      3.23722320094598      3.06293744720244
  C   -2.84413978338721     -2.84858984214241     -3.09030029314664
  H   -3.31661552907279     -3.64548869146982     -3.66178753504541
  H   -2.61820889457855     -2.01467783620920     -3.75330694028738
  H   -3.51908503392943     -2.51857080492205     -2.30176744995765
