34
Coordinates from ORCA-job 118optt
  C   2.78593805076517      0.24306767259375      1.41857632151533
  C   2.99789632963651     -0.95849047603721      2.05993197383584
  C   2.08854449586585      0.33324671633340      0.11511774009476
  C   1.63749045360440     -0.91219670310765     -0.45611780063732
  C   1.87715485890713     -2.13662286893153      0.23595834738197
  C   2.54733230611332     -2.13529712069376      1.47364883159622
  C   0.94822489627677     -0.93329354628415     -1.72337464782336
  C   0.54460758290017     -2.26485639922300     -2.21566883196093
  C   0.78845441116334     -3.43122360756801     -1.52553034679434
  C   1.45004858739213     -3.36481176208862     -0.30486489220611
  O   1.94899402301626      1.46313456401482     -0.37998217422832
  O   0.66389897579142      0.04660848040672     -2.43248992670361
  H   0.46671569598322     -4.37674595395876     -1.93613546788919
  N   3.16373588838852      1.51154553450011      1.84886599203100
  H   1.64898093639661     -4.27329189065143      0.25061542041424
  H   2.87116582544170      2.21175908799392      1.16560473748063
  C   3.80132748152040      1.97536366032653      2.94268405028295
  O   4.04035973160988      3.14609453942171      3.15354165059231
  O   4.16277263177046      0.99891248178072      3.80629367120537
  C   4.83021243822976      1.46262853761955      4.96826628630357
  H   4.19433213546280      2.14418887400611      5.53256611836888
  H   5.74989477229996      1.98342420044745      4.70334718663755
  H   5.05182104671355      0.57555939072206      5.55651064386372
  H   3.50913943868244     -0.99121889373455      3.00883019595147
  H   2.71260874644867     -3.08131908465899      1.97496226698780
  H   -2.08360409585984     -2.99942746435179     -7.07455547588223
  O   -0.59871198167243     -4.33656877353775     -3.99343689101158
  C   -1.69860005278017     -3.56691758729629     -6.23094076432398
  C   -0.59969119469271     -3.14524045274374     -4.21411425662134
  O   -1.14230489483149     -2.61385846563094     -5.34434959712776
  H   -0.94050845995450     -4.27534150655071     -6.56543690025549
  N   -0.09872587254632     -2.16455333748496     -3.44278578817976
  H   -2.50381858503617     -4.12205086035741     -5.74923843679314
  H   -0.16100660300688     -1.19270698527558     -3.74426923610515
