32
Coordinates from ORCA-job 1197optt
  C   -0.91247099932474      2.15638963893231      0.79420545542064
  C   -1.92595294073075      1.13105488487957      0.69789908702246
  C   0.39415633385298      1.87334001318550      0.55773845601913
  C   0.87250173961832      0.53756348926744      0.18918203827919
  C   -0.10677356827766     -0.48076795517903      0.09196578791625
  C   -1.45294243383998     -0.19376937292779      0.32766592494738
  H   1.11364910214939      2.67255961193927      0.66918715737412
  O   -3.16283999080664      1.32207915294427      0.93540493829578
  C   2.25655296270853      0.28882537329552     -0.05600039831256
  C   2.75809744339356     -1.07155407560837     -0.27213270080741
  C   3.21357690176055      1.33160510383425     -0.10532053963679
  C   4.55653288795318      1.04872693396404     -0.36348148359210
  C   5.05382707771305     -0.30178555156346     -0.57427282686876
  C   4.06363683306357     -1.35266254890426     -0.51680269840819
  H   2.06400986015156     -1.89853560399248     -0.21480743015369
  H   2.92560533401817      2.36768035185242      0.00261525395709
  O   6.29703096291188     -0.49912032571239     -0.77035432370334
  N   5.49748043195869      2.01439496881220     -0.45327102706210
  C   -1.37725934468277      3.52618683206269      1.18573353710895
  N   -2.42481879988954     -1.12565491667930      0.21313845261040
  H   -1.87440070021554      3.49793191892333      2.15778204110171
  H   -2.12015482869770      3.89534654235015      0.47545167232719
  H   -0.54161696029986      4.22500360515185      1.22881454950947
  H   -3.34100245415634     -0.82717389969424      0.51653585906923
  H   -2.19705946723017     -2.10088433083489      0.15427682431096
  H   5.30709494318246      2.94790251086371     -0.13909237450127
  H   6.44746708054829      1.68003667673394     -0.53221876955179
  C   4.55726303514832     -2.75291970775156     -0.71996015568648
  H   3.73769484702953     -3.46917008444232     -0.65810610808889
  H   5.31312652491567     -3.00424232347358      0.02725476405743
  H   5.04721056351021     -2.84841844462262     -1.69131702255411
  H   0.15134762256372     -1.48473846760617     -0.21380394039987
