26
Coordinates from ORCA-job 1198optt
  C   -0.94627743772516      0.02401296832774      0.32917167853202
  C   -0.88822823055579     -1.37005597462336      0.20685249296658
  C   0.18192464238768      0.80478682157489      0.29056296112278
  C   1.50476982171963      0.22784806267522      0.11844910121140
  C   1.59658965802647     -1.17747902424171      0.01076805034109
  C   0.45465845960400     -2.02255442936250      0.05799944439752
  C   2.91938347434359     -1.75433574913795     -0.16166866588144
  C   4.04766771858080     -0.97354030700772     -0.20000473675950
  C   3.98966194791715      0.42041007454911     -0.07726563696689
  C   2.64673447280858      1.07290065646621      0.07128993542677
  S   5.44129472747902      1.33331714395801     -0.33606399998377
  O   2.56453247356860      2.32631499345581      0.14818703734808
  H   -1.91645798098824      0.49427501840858      0.44798828842232
  S   -2.33974770576039     -2.28260182585830      0.46709753056385
  O   0.53677565532948     -3.27595303938764     -0.01920870427648
  H   5.01784081802781     -1.44379478682359     -0.31886996778556
  H   0.11330366846471      1.88149722774148      0.36573314987283
  H   2.98800243472073     -2.83102314891223     -0.23719255841055
  C   5.38808958410803      2.62703710918377      0.93332685712687
  H   4.61939357142217      3.35428335350429      0.69733971009184
  H   6.37753316507119      3.08507731588049      0.93937821876080
  H   5.18638844168795      2.17785946524241      1.90444412166649
  C   -2.28595309054342     -3.57994865505920     -0.79851485649104
  H   -2.07983246023110     -3.13393529502039     -1.77014654644949
  H   -3.27665438118358     -4.03523764711262     -0.80648206848436
  H   -1.51998344828010     -4.30868032842077     -0.55836083636216
