26
Coordinates from ORCA-job 1201optt
  C   1.95121311070582      2.12100478539764      0.83540932079809
  C   2.81572107143998      1.01359406304415      1.14599205264343
  C   0.60992428178893      1.82132965070415      0.24117104459675
  C   0.20037472611764      0.41779912302950      0.12037236042294
  C   1.12939255576180     -0.61319329475077      0.42857709869313
  C   2.41579557828564     -0.27072452197948      0.93703908331520
  C   -1.15574179459832      0.06330419119225     -0.31047761696521
  C   -1.45624495296165     -1.37666629251825     -0.59425932075503
  C   -0.45183539518234     -2.35270771880682     -0.26286135904164
  C   0.75996775173801     -1.97523867769069      0.22826834799543
  C   2.40727111308897      3.43428914743070      1.07876880007209
  H   3.80072929782365      1.22164643699836      1.54720144799521
  O   -0.08301973388509      2.75286333989745     -0.16360612920550
  H   3.09437309412913     -1.08578243752487      1.17313221308413
  O   -2.06224570414751      0.88892759332830     -0.40235977675376
  C   -2.67910135048706     -1.81038443682217     -1.14609706597490
  H   -0.67865544595428     -3.40159412079859     -0.41451916672857
  H   1.49675191487640     -2.73540431046187      0.47290661150002
  C   1.79422233889672      4.64419731620212      0.89997197405740
  H   3.41545030824485      3.46881737070332      1.48971274414565
  H   0.79626105674793      4.72926120118743      0.50272844096874
  H   2.32921853333137      5.54821034601570      1.16271239740545
  C   -3.76511252771129     -1.10034348422458     -1.58304733592791
  H   -2.74421197635601     -2.89254556522180     -1.25163028396308
  H   -3.80543689043122     -0.02469340644475     -1.53295022384179
  H   -4.61465096126209     -1.63490629788645     -1.98905565853629
