24
Coordinates from ORCA-job 1202optt
  C   -1.65602979313298      1.03428643100932      0.06060326266017
  C   -2.00796138970735     -0.18836202273948     -0.46575737378323
  C   -0.33368127175724      1.30938416910130      0.38467446601307
  C   0.70732259166719      0.32468879980303      0.18856294692140
  C   0.33187187912651     -0.98072947908395     -0.19862723158050
  C   -1.00172036184535     -1.24651639816104     -0.64495974966867
  C   1.38328445175874     -2.00342387773194     -0.21029349453531
  C   2.74625181724240     -1.59301041047705     -0.30488414752097
  C   3.08164702074287     -0.30730620258482     -0.03636423102839
  C   2.07317091817219      0.69810295698407      0.31868891761674
  H   3.49233361122164     -2.35262036940022     -0.50196529377222
  H   4.11262506960481      0.02546682086352     -0.03753276942377
  O   2.44258533339127      1.86811992496174      0.65795338178815
  C   1.11962944603688     -3.42512268955301     -0.06053172020144
  H   -2.40942061202824      1.80012108312665      0.20888600807899
  H   -0.03425163262339      2.27345136747005      0.77262171999364
  H   -3.01843552396449     -0.42686770418706     -0.76900345488240
  O   -1.34932720555647     -2.31660844970092     -1.20127971129848
  O   1.82908316842640     -4.31449143858456     -0.49901852760980
  O   0.02089032194470     -3.68944204337346      0.68097948293354
  C   -0.45076894188074     -5.01847052278316      0.60270063907990
  H   0.30296579702645     -5.72678649252615      0.94921946500370
  H   -0.71875330676647     -5.25878692247045     -0.42756770819216
  H   -1.33426138709935     -5.06320652996234      1.23541512340801
