25
Coordinates from ORCA-job 1204optt
  C   -0.73173186074179      0.02169877527054     -0.00002157775726
  C   0.68207237311279      0.03007437948111     -0.00001952119164
  C   -1.45389603945189     -1.23703086402890     -0.00002995943650
  C   -0.68698502624287     -2.44750494367788     -0.00002611714871
  C   0.66386536139255     -2.43334121514517     -0.00002371858254
  C   1.42101760689274     -1.20335805922078     -0.00002113268172
  C   -1.52365747680876      1.19328813452516     -0.00001598032287
  C   -2.85245535952199     -1.28117080766623     -0.00000782963238
  C   -2.95999572413026      1.17596949393494     -0.00008320036335
  C   -3.61513940069165     -0.13606503749112     -0.00001186677476
  C   1.46446935439055      1.22445792641634     -0.00002554849883
  C   2.82062813404614     -1.23178306024094      0.00001753677322
  C   3.58300629949254     -0.07370228567902      0.00002655570006
  C   2.90932447413996      1.20437258024822     -0.00007931729280
  H   -1.08215106575660      2.17972921634237      0.00001526295495
  O   -3.63789329060017      2.21893206128382      0.00004187575707
  H   -3.33842801682649     -2.25440209147017      0.00002266027364
  O   -4.97976096966412     -0.13893567238924      0.00003055681325
  H   -1.22137248024886     -3.39225824391516     -0.00002542923656
  H   1.21602548065242     -3.36755309239542     -0.00001746549578
  H   1.01306665103314      2.20627298605924     -0.00001438260466
  O   3.55182306703269      2.27867581772582      0.00004617566243
  H   3.30463409370006     -2.20329027684907      0.00004958710187
  H   4.66374164979413     -0.07798127070787      0.00007590924390
  H   -5.27695783499424     -1.05348445041056      0.00009692674001
