36
Coordinates from ORCA-job 1209optt
  C   -1.71060054215543      0.89566029226585      0.00664703242600
  C   -1.87046732546505     -0.41719641956166     -0.34374799335568
  C   -0.44976440184202      1.48526216963466      0.19780848783743
  C   0.75877610395493      0.63226773118018      0.13817845336847
  C   0.58561305736523     -0.69646372681937     -0.32439464210494
  C   -0.69143069314342     -1.26145151228779     -0.57595684077319
  C   1.76645126358386     -1.53440559948555     -0.50744563108585
  C   3.03929765621791     -1.07994165115609     -0.20027421781446
  C   3.24448790562953      0.18213192705607      0.31226739721623
  C   2.05489106745118      1.07244124636288      0.54883348287797
  H   3.88153750520309     -1.74145009038972     -0.37319041056138
  C   4.59654496479291      0.76934366915449      0.59888210918502
  O   2.28311861041818      2.17242460010909      1.13265166203234
  H   1.60380014078809     -2.52759342875491     -0.90160607694663
  H   -2.59366782170628      1.51338279093272      0.11426593605770
  C   -0.31938455328190      2.98386766718471      0.33280958274890
  H   -2.84336321643314     -0.86460835026133     -0.49746307329459
  O   -0.84956442196027     -2.45578878437414     -0.96898601956571
  C   4.95847776701056      1.81960159970158     -0.46255207717330
  H   5.04290457523593      1.34509088316620     -1.44405630129374
  H   5.91488105279826      2.29563245050280     -0.22660709792468
  H   4.18683081443037      2.58686411866356     -0.50743759823479
  C   5.70829938263432     -0.26957802820556      0.70324631153529
  H   4.51615706075815      1.30217027272091      1.55063762253934
  H   5.88371986638137     -0.75726907129390     -0.25916215518817
  H   5.46666614491965     -1.04338982440254      1.43398697409214
  H   6.64316971998754      0.20885326436955      1.00302803356665
  C   -1.63627204935111      3.72047512516958      0.56256393554111
  H   -2.29901797142974      3.64759511405591     -0.30364731074590
  H   -1.43265114016981      4.77989014278195      0.73221065316960
  H   -2.17072610620112      3.33514644289526      1.43305746095242
  C   0.37559021430483      3.55471556016605     -0.91289373222896
  H   0.34235627833632      3.18531573690743      1.17491886907044
  H   0.54629031860193      4.62806300977487     -0.79579117932518
  H   -0.24919920856884      3.39606499346896     -1.79651329926917
  H   1.33745798090387      3.06992567876719     -1.07216834733073
