26
Coordinates from ORCA-job 1213optt
  C   1.09795582335966      1.19526109767809      2.01826469903169
  C   1.71586781863813     -0.02716729036304      2.20964794758301
  C   0.37662072632806      1.47428949441068      0.76439126548022
  C   0.24490892871897      0.39453350322646     -0.17681248246814
  C   0.60460941170365     -0.95325210496734      0.20306975273652
  C   1.51837086023233     -1.07582574283327      1.32658758951579
  C   -0.31137497639557      0.57472450795958     -1.55696199505246
  C   -0.88549245249995     -0.57503884771811     -2.16432077116222
  C   -0.87466569550821     -1.84779176700126     -1.56093287974006
  C   -0.06531450716134     -2.02018929597975     -0.41453295923964
  H   1.20184769020026      2.01677823634977      2.71290394884698
  H   2.39133495202897     -0.19818530453425      3.04085088352993
  O   -0.08442131040343      2.61756636294310      0.58330411126675
  O   -0.20131729489577      1.66037433949250     -2.16016668160245
  H   -1.30623463374060     -0.43141800196392     -3.15254175095421
  H   -1.37825802544027     -2.68048409441978     -2.02360453640297
  O   2.24852621103548     -2.21316444862004      1.54868672529425
  O   0.10846749923867     -3.24379952950923      0.15641674955216
  C   3.00288247251579     -2.67221394628599      0.44446730671910
  C   -0.52335373817204     -4.35602852729031     -0.42541330786063
  H   3.75465059391264     -1.92633329580062      0.16497614723377
  H   2.37269750436309     -2.88382106170027     -0.41932272019880
  H   3.49932925916936     -3.58636096681483      0.76725405296050
  H   -0.24210062817472     -5.21456527637067      0.18178829824421
  H   -0.18963428652508     -4.51211249409452     -1.45513623837146
  H   -1.61062220252813     -4.24451554579294     -0.41703315494180
