26
Coordinates from ORCA-job 1219optt
  C   2.05286708899469      0.49505706088318      1.50352327091690
  C   2.57679338679798     -0.73841593244902      1.16738050998190
  C   0.72416529494627      0.91851631184956      1.02402031149613
  C   0.03437886125966      0.02243218326475      0.14448366014233
  C   0.70398291770187     -1.13576178407643     -0.39190981968807
  C   1.92711056661413     -1.58371806129648      0.26950183839773
  C   -1.37207780409011      0.25045818869485     -0.33383646410457
  C   -1.76744013019115     -0.38685801578357     -1.53747021836892
  C   -0.94071342077242     -1.29677360419556     -2.22621301127261
  C   0.24870828296642     -1.69950745824320     -1.58037952188376
  O   0.28862445358152      2.02983053095403      1.39302731053253
  O   -2.17990564623341      0.90628652156978      0.36649895630448
  H   -2.78359908072688     -0.18791039546281     -1.85948153400220
  H   -1.26347823761886     -1.78157438902879     -3.13595267716712
  H   2.55604587253280      1.16625382782631      2.18560739846689
  H   3.50323706533845     -1.05845236386383      1.62856117909548
  N   2.43446015402499     -2.84951599570018     -0.06536451581404
  H   0.85173592321529     -2.48332418721640     -2.02832241711996
  C   3.77824454842812     -3.16100512248027      0.35485909187064
  C   1.53870156454630     -3.97729538635136      0.15268787563678
  H   1.84849212581356     -4.82072478203914     -0.46861831408903
  H   0.51935020998279     -3.70197466801078     -0.10199669699293
  H   1.56093935442360     -4.29358226468564      1.20677109052125
  H   4.45897764022910     -2.36485887929711      0.05567108613941
  H   4.08959011814332     -4.08827848322210     -0.12947006032287
  H   3.86204889009194     -3.30282285163973      1.44479167132366
