22
Coordinates from ORCA-job 1221optt
  C   1.82454983303055      1.02835280432193      1.21971347272435
  C   2.27318690150569     -0.29850024565466      1.32829076233237
  C   0.68133843698634      1.43129753641559      0.48335669233727
  C   -0.03981506226097      0.37718271411602     -0.30735806629820
  C   0.32416222979962     -0.99070236923754     -0.04790980673291
  C   1.45010313868174     -1.28930390172473      0.72552101181915
  C   -1.06000230033438      0.67521811339704     -1.26697552238612
  C   -1.81869619002188     -0.45310084844026     -1.85197027355531
  C   -1.51547684623423     -1.75282106327942     -1.51357262165283
  C   -0.47592685914215     -2.03842875123719     -0.63880697769396
  H   2.32587676323397      1.82369363578149      1.75935726746277
  H   3.12739938078309     -0.55078258352723      1.93345027512236
  O   0.25225454049351      2.60668788297197      0.53775881502654
  O   -1.34815154408339      1.82573856452591     -1.67116753876167
  H   -2.59811726714294     -0.19192113643316     -2.55428088592186
  H   -2.08487499467643     -2.57393742116156     -1.93664143617729
  O   1.72039395744676     -2.62027407827987      0.86163497767063
  H   -0.25190371132455     -3.06546488260227     -0.38635110387149
  C   2.83597633680557     -3.00138049618612      1.62626730889431
  H   2.73967398368152     -2.67049639247455      2.66368183026746
  H   3.76163383599762     -2.59750075671544      1.20851490802367
  H   2.86895543677488     -4.08922632457591      1.59505691137076
