24
Coordinates from ORCA-job 1224optt
  C   -2.25844170414472     -0.53944490384595      0.27033104613449
  C   -1.26252375019924     -1.62047742708341      0.36757023837736
  C   -2.15297247942128      0.39788093579791     -0.89940734333756
  C   -0.82809568768599      0.50947139028827     -1.38885835326817
  C   0.26917667284059     -0.20436381459607     -0.87845201984908
  C   0.15853564169502     -1.29558768565026      0.01983463576758
  C   -1.79191232841607     -2.99627270386360      0.42115832142025
  O   -3.12913654335663      1.06124091421590     -1.29332113950653
  O   1.10038114286621     -2.00563266771509      0.41576075226183
  H   -0.67722461477145      1.25423457288893     -2.16106817239168
  C   -2.97702714446819     -0.21774436480766      1.51417615799808
  H   1.26862374293958      0.00730147974081     -1.23853802309810
  O   -2.45057903176240     -0.34847561803676      2.59747271462841
  O   -4.24361573298519      0.22319839862131      1.45626733079014
  C   -5.08912629174687     -0.11901632393974      0.35756403799036
  H   -6.01982455177871     -0.48100768202172      0.79522262999369
  H   -4.64326322604788     -0.90097214360325     -0.25631146031827
  H   -5.25890245768585      0.75665606311849     -0.25974357253147
  O   -2.75128939778839     -3.33001359077394     -0.23578134617165
  O   -1.20884589436673     -3.89374873733306      1.22892186552649
  C   -0.43059734220891     -3.46692733810414      2.34982346228779
  H   0.62566370520354     -3.52798468401001      2.10965974212318
  H   -0.69246851583725     -4.14056898359803      3.16511197646941
  H   -0.67763421087305     -2.44235508568883      2.62991651870339
