36
Coordinates from ORCA-job 1225optt
  C   1.95670475670263      1.95455119624358      0.46711485975121
  C   2.82227453156541      1.00135994700231      0.90566160971574
  C   0.63825758894331      1.62911295267166     -0.10390907839341
  C   0.21783998460439      0.25751491095328     -0.08789624557903
  C   1.14722750788031     -0.75322033370975      0.30758691337248
  C   2.42483462711356     -0.35321624548347      0.81731262470787
  C   -1.14040940893737     -0.20729986293290     -0.47231790285161
  C   -1.36457209312051     -1.60730644981121     -0.61212438296132
  C   -0.43875028031860     -2.59009240192238     -0.30197605453522
  C   0.82029958244332     -2.10692295031245      0.18513236698242
  H   2.21062307293246      3.00850290354327      0.48621218339700
  C   4.18188173005350      1.36009636156428      1.46431037228683
  O   -0.01871476999954      2.57637911182002     -0.61819662185777
  H   3.10182456487551     -1.13422856239997      1.14903437832464
  O   -2.10169658196460      0.61476668089459     -0.59398207267008
  H   -2.36760951238963     -1.86034905789864     -0.93902674639097
  C   -0.65075455933588     -4.07283387264220     -0.44707991737535
  H   1.58401706336881     -2.82792451523243      0.46859140725355
  C   4.33054718083752      0.91493649949405      2.92084991668996
  H   5.29460404874181      1.23027074477991      3.32761167594878
  H   4.27215152542257     -0.17278894978057      2.99924578529594
  H   3.53626450991367      1.33673507534897      3.53762232119590
  C   5.31270624311702      0.78077644463338      0.61143366691795
  H   4.25886120630117      2.45075690305025      1.43373455079880
  H   6.28789524381228      1.09578536570423      0.99107968024415
  H   5.22007293319018      1.10497254562945     -0.42567878936138
  H   5.28370865337275     -0.31102287910737      0.62411714054299
  C   -0.61237804458167     -4.79444326192261      0.90874671907245
  H   0.30121693494549     -4.55900660972390      1.45628303372140
  H   -0.66584039597746     -5.88115639387278      0.78297382208525
  H   -1.45817891605485     -4.47137695303825      1.52088906731023
  C   -1.94611986757012     -4.42737506491495     -1.16902861909910
  H   0.18043944133247     -4.48456581354123     -1.04393388803946
  H   -2.03049743577121     -5.50896721828344     -1.29529163377476
  H   -1.99595530175018     -3.95690767484971     -2.15200701092356
  H   -2.81016576369876     -4.08923257195283     -0.59159513180256
