19
Coordinates from ORCA-job 1234optt
  C   -1.66439779993462      0.70128926308484      0.00000036612159
  C   -1.77509703247719     -0.67237223744233      0.00000062189847
  C   -0.42089523622629      1.32365277439371     -0.00000043634392
  C   0.81164542283992      0.55023344522035     -0.00000062434576
  C   0.70197919177882     -0.86250681877391     -0.00000041949116
  C   -0.55751048809423     -1.51275739199118     -0.00000070213193
  C   1.92781876872024     -1.63972576654383     -0.00000043411694
  C   3.17309802893023     -1.02122648981554      0.00000034929651
  C   3.29467256144505      0.34778992213466      0.00000073153138
  C   2.07644846527187      1.18669272277446     -0.00000104323794
  O   4.32360503584397     -1.77945622789320      0.00000038306225
  H   4.25806548831217      0.83672211245671      0.00000101950560
  O   2.21587857124397      2.44734147851804      0.00000011080615
  H   1.83991719647253     -2.72076297739837     -0.00000092851502
  H   -2.55862015270450      1.31591892501318      0.00000092849626
  H   -0.33274761919877      2.40148329773527     -0.00000105127920
  H   -2.72720885615177     -1.18524384892222      0.00000110816250
  O   -0.68246139856585     -2.77361386570125     -0.00000038230642
  H   4.06513985249440     -2.70562831684939      0.00000040288757
