19
Coordinates from ORCA-job 1235optt
  C   1.58520634577455      1.31934085608463      1.61358429323477
  C   2.31252544968916      0.13040517610060      1.74188759948152
  C   0.45305942114313      1.46799664200858      0.77177509299297
  C   0.09622412251052      0.30511879074088     -0.11295507692174
  C   0.68742545536688     -0.96710318700594      0.22402855284477
  C   1.79690184770942     -1.00496218585581      1.07420449848217
  C   -0.79590959142607      0.40329178318997     -1.22368589778522
  C   -1.23714710753137     -0.85342892771643     -1.87494248425318
  C   -0.81017148149718     -2.07094134400842     -1.40986836155727
  C   0.11681023921088     -2.15227187523157     -0.37121887854215
  H   1.83507780308456      2.18999754364036      2.20933137907567
  H   3.17784721023493      0.02612519185889      2.37822245365981
  O   -0.27653097960147      2.48736022217761      0.80914890883363
  O   -1.22806461271217      1.47917059584459     -1.70315656028866
  H   -1.92827465080066     -0.74828602856514     -2.69982869098999
  H   -1.19755181883133     -2.98856576886157     -1.84020516749760
  O   2.44816431198823     -2.17995398854610      1.30453902515207
  H   0.34975537005578     -3.13757857835526      0.02291845164453
  H   2.11945266563218     -2.83977491749990      0.68598086243390
