22
Coordinates from ORCA-job 1237optt
  C   2.20610217685123      0.54896076313595      1.43030843227211
  C   2.67977004106289     -0.72813872262231      1.24174402105641
  C   0.92606622039597      1.00305351560239      0.80768732124790
  C   0.16831157163920      0.04428348216819      0.06199541533261
  C   0.72879167183721     -1.23721244691363     -0.21488746985455
  C   1.97035718229734     -1.61021094883801      0.43292626834851
  C   -1.20428553128019      0.30612253695184     -0.46267339041437
  C   -1.75946002430620     -0.62020323976157     -1.38398930186101
  C   -1.14005430956106     -1.80760958018953     -1.75216156155381
  C   0.09559871906936     -2.10757650277576     -1.10119204412574
  O   0.64714636619848      2.22108076809656      0.94501117443081
  O   -1.88595867462024      1.28565897056381     -0.02946765029351
  H   -2.74754654745033     -0.36244709052559     -1.75097402292154
  H   -1.59151197497925     -2.50476322370720     -2.44241901929456
  N   2.87019359825401      1.46841753541541      2.22972068151462
  N   3.91159121745809     -1.09086838010830      1.85165128046905
  H   2.34990290809984     -2.61632982546453      0.28310334473596
  H   0.58382559161748     -3.05765267238379     -1.30025957333172
  H   2.43531189156614      2.37928450139400      2.11649519542170
  H   3.87234834929354      1.48900251026701      2.09023298610609
  H   4.03472848533414     -2.09470038170307      1.85752146349843
  H   3.94852107122231     -0.74961156860184      2.80641644921660
