24
Coordinates from ORCA-job 1240optt
  C   -1.69886581907466      1.66461503335679     -0.33346647648487
  C   -2.22167314241134      0.38567293327270     -0.50037183346371
  C   -0.33705394876418      1.79801226852137     -0.07928868590371
  C   0.51566924587635      0.67962460918984      0.01320760379391
  C   0.03116407104942     -0.61733822975649     -0.14543266216681
  C   -1.41221789113145     -0.78829287216594     -0.41854742438618
  C   0.87668064611976     -1.74009577444628     -0.05131910147461
  C   2.27844245600807     -1.59822838688263      0.21207652906110
  C   2.78015558307200     -0.27960008285800      0.37168947004779
  C   1.96670001367818      0.87382598280435      0.28577322907588
  C   3.17556163244702     -2.69655472965652      0.31993799783012
  H   3.83439717200027     -0.13524541690883      0.56971543294143
  O   2.41627815649894      2.03481787921983      0.42910476773912
  H   0.43842849772482     -2.71782184962080     -0.18420413862575
  H   -2.33450017755615      2.53704951538035     -0.39958497483466
  H   0.11792636167083      2.77138266962059      0.05727462595220
  H   -3.27393446910395      0.22286224849505     -0.70068871917004
  O   -1.90323347479714     -1.93013347752539     -0.57155404008229
  O   4.38643529233957     -2.64674447669499      0.54133686545076
  O   2.55307493972249     -3.92148643242249      0.14758429532420
  C   3.41237069864590     -5.03211182271239      0.25109102878297
  H   3.88617854435423     -5.07673959818314      1.23390692033209
  H   4.20321288423988     -4.99340175785782     -0.50081132935206
  H   2.79176272739101     -5.91346823216895      0.09535061961306
