26
Coordinates from ORCA-job 1247optt
  C   2.50769577986927      0.22926725683125      1.52361441467360
  C   2.96273985328036     -0.95556793599612      1.04179339004738
  C   1.20360904838741      0.79633802792181      1.12214879273461
  C   0.41401080601323      0.05504424964687      0.19829886961201
  C   0.96024397961961     -1.10150361759887     -0.45523959631451
  C   2.19283707467520     -1.67218948879126      0.07170926094953
  C   -0.98924969352302      0.42685446374024     -0.16270023488475
  C   -1.54591591146505     -0.14267669967591     -1.33705069546504
  C   -0.89464159574925     -1.11906802050289     -2.09474233562893
  C   0.33125864748389     -1.61083838675051     -1.59292065423678
  O   0.89493093644988      1.91910707498722      1.60014924047574
  O   -1.67653075595861      1.15257717641292      0.60368152261357
  H   -2.55164247018026      0.18392917778858     -1.57735635668327
  H   -1.34053068995024     -1.54928409642743     -2.97914453749395
  H   3.05205971230642      0.82736342540703      2.23884953159336
  S   4.48994475483301     -1.69665292075191      1.56320484727695
  S   2.75155985142315     -3.23957121314900     -0.47503688299552
  H   0.82780975960013     -2.41786395055253     -2.12011378011422
  C   5.12928443560310     -0.44178494777547      2.68061451147251
  H   5.27834479395909      0.50675984981804      2.16619776576431
  H   6.09015372653120     -0.81738846171711      3.02878886988671
  H   4.46968235900099     -0.29653522661136      3.53514593780890
  C   1.36403337224794     -4.29971579180389      0.03361535390829
  H   1.58455503286668     -5.30154310232087     -0.33278038261283
  H   0.43174825568441     -3.94413884200091     -0.40061816945566
  H   1.28855893699137     -4.31099800012788      1.11902131706798
