26
Coordinates from ORCA-job 1250optt
  C   -1.00777800042501     -0.05363460317287      0.14740796103454
  C   -0.77660889376957     -1.39440458210278     -0.01303726008767
  C   0.05745230502267      0.85713644536066      0.23826047129298
  C   1.43498124246135      0.41341383514327      0.16755980996916
  C   1.67838519614542     -0.97117595517966      0.00205991399334
  C   0.61242096716786     -1.90041981838580     -0.09225696427342
  C   3.05592718045364     -1.43414509160379     -0.07238849309929
  C   4.11396112464936     -0.54869566249993      0.02010714912744
  C   3.88632221731347      0.81288671642962      0.18493591757207
  C   2.50464145863973      1.33312591648074      0.26153296777157
  H   4.69156380541470      1.53077899567311      0.26366746010148
  O   2.34433488018095      2.58148753373188      0.40923325686443
  S   -2.62408368568815      0.66615081099236      0.25769767153008
  H   -1.55595171587223     -2.13756620915957     -0.08822770417438
  O   0.79275937590241     -3.14387526481926     -0.24062511573700
  S   5.81265061459021     -1.05107590300375     -0.06250472488728
  H   -0.12670079105807      1.91631936911021      0.36335293610242
  H   3.19653663800045     -2.49675646017596     -0.20156666608917
  C   5.69198273174040     -2.83750509356872     -0.21889412263159
  C   -3.69304395943488     -0.76625654113940      0.08145811189375
  H   6.71538532623864     -3.20707241616225     -0.25667509060533
  H   5.17406290251883     -3.12000645377708     -1.13411031780788
  H   5.18301467182919     -3.27316192845414      0.63955277197426
  H   -4.71466116080457     -0.39340052625954      0.13124303486114
  H   -3.53027881643233     -1.47902098300924      0.88891091643717
  H   -3.53470561478452     -1.25658613044808     -0.87826389113285
