23
Coordinates from ORCA-job 1255optt
  C   -1.40427065136361      0.38643840587401      0.13024792822562
  C   -1.55948138124922     -0.97030560515508     -0.06439623436349
  C   -0.14378262963992      0.96536965176542      0.19095430309101
  C   1.06258058742453      0.16197188691854      0.05906565627690
  C   0.90792690395485     -1.22930359225747     -0.16125688296438
  C   -0.37285959597493     -1.83506704316170     -0.22650600519731
  C   2.10534153335716     -2.02678551516178     -0.36818906021865
  C   3.37595242097843     -1.46408891211162     -0.24131256135903
  C   3.53023451188170     -0.11977266108590      0.01568358376447
  C   2.34368958261073      0.75284128911713      0.13942522099859
  N   4.53284636095876     -2.27633669781754     -0.41840803251908
  H   4.50421913917285      0.33383600488962      0.14207495129346
  O   2.53059563633412      1.99492031104845      0.32757692546558
  H   1.97987609922170     -3.05266087857243     -0.69384954700177
  H   -2.27823974055234      1.01982802086966      0.23812062351160
  H   -0.01972358581124      2.02919636666203      0.33895002714684
  H   -2.52741388980816     -1.44938887717458     -0.11393379194219
  O   -0.53654810435574     -3.07141220227845     -0.42429913208965
  C   4.87144838330980     -3.41448630722256      0.26647341084080
  O   5.95560362737924     -3.93449781583407      0.16558779601788
  O   3.92771612411497     -3.93410859765587      1.06503681067017
  H   5.32908180810263     -1.84488248829036     -0.85949347230129
  H   3.11539685995363     -3.40223474336541      1.03315748265394
