24
Coordinates from ORCA-job 1257optt
  C   -1.05960144446130      0.45182327625982      1.02033024560248
  C   -1.50484119121387     -0.72278524068390      0.43630305112727
  C   0.24653017566303      0.88020230527790      0.86515287292146
  C   1.21055137677155      0.10405494481627      0.10567816705170
  C   0.74874518458847     -1.06262415119751     -0.55107005614658
  C   -0.59825109625675     -1.51641533184272     -0.40683042390746
  C   1.66908519453465     -1.74214418578622     -1.43241500617279
  C   2.97020333809721     -1.34428100197647     -1.56912639050623
  C   3.50276471155278     -0.27767235631013     -0.81358469583297
  C   2.54956879818274      0.55121098411837     -0.01617920648513
  H   3.63822934734238     -1.87114477499245     -2.23893126599083
  C   4.93071531977992     -0.00953786244845     -0.94542318076267
  O   2.93467785762232      1.66000323905961      0.45781159493648
  H   1.28824444984304     -2.58823866173236     -1.99032851173018
  H   -1.74298681699878      1.05203560466522      1.61109204209820
  H   0.59055196247358      1.80371327220346      1.31022057776440
  H   -2.51719324831535     -1.08566923431014      0.54689717086085
  O   -1.03761038710937     -2.54406332469037     -0.97747222169973
  O   5.55225961669551     -0.26563795747958     -1.96003615695252
  O   5.62774939289349      0.53296074200737      0.08901250697834
  C   5.21500186871214      0.32521634053741      1.42855443609165
  H   6.11481392293440      0.08366744002194      1.99675456720030
  H   4.51026939693258     -0.50458078258002      1.50523854733592
  H   4.74112226973550      1.22118671706299      1.82190133621803
