28
Coordinates from ORCA-job 1264optt
  C   -0.76966289820644     -0.00725075634637      0.01273565287534
  C   0.68423792971274      0.00293785847046     -0.01234754150613
  C   -1.44158076879179     -1.25270035105730      0.23167496247141
  C   -0.71848952248719     -2.43790185301555      0.16554083118220
  C   0.66697792622341     -2.42817461002387     -0.16605677931626
  C   1.37353100210957     -1.23287584803831     -0.23157811891592
  C   -1.58991127454788      1.09822218373914     -0.33950740614709
  C   -2.86901251510402     -1.23154264385533      0.47098436754271
  C   -3.06073733639955      1.10403721376816     -0.16798823516646
  C   -3.62951246819135     -0.11094133396300      0.29306181547417
  C   1.48885751176441      1.11980570989600      0.33990862721447
  C   2.80055087292362     -1.19166007556849     -0.47044677932837
  C   3.54522247327626     -0.06024921920715     -0.29320888316147
  C   2.95935830642476      1.14682587871928      0.16711262588954
  N   -1.13842763682612      2.21977545227460     -0.91597074874209
  O   -3.69287834073401      2.16525836117580     -0.44806268433893
  H   -3.33215581818526     -2.16058662350435      0.78345959764760
  H   -4.69812808768647     -0.12147079950724      0.47137654514135
  H   -1.23800799464900     -3.37720964760082      0.31087233438237
  H   1.19956748832550     -3.36010054702138     -0.31158338972312
  N   1.02189956896778      2.23431688676368      0.91758049854122
  O   3.57602958418440      2.21749235938542      0.44567901217625
  H   3.27680870539525     -2.11421251645343     -0.78244632795360
  H   4.61383988388919     -0.05576747621325     -0.47175955390519
  H   -0.17862226658020      2.34445982729519     -1.18315351633412
  H   -1.86057010449362      2.88673117437662     -1.15814877664515
  H   0.06028046605683      2.34604952577533      1.18394157679321
  H   1.73442531362916      2.91204186973614      1.15834029385207
