30
Coordinates from ORCA-job 1273optt
  C   -1.33286594108070     -1.09033216640938     -1.21447395769971
  C   -1.74502152593308     -1.90499877342756     -0.13929649464777
  C   -0.20861444031776     -0.21580159042583     -1.16959657719230
  C   0.52642391033801     -0.27134217152976      0.12085809258442
  C   0.47144695165582     -1.52885419775097      0.86021650721317
  C   -0.89580838032089     -2.13946805390005      0.98506551511395
  H   -1.94736549593519     -1.03244368683010     -2.10730164995178
  C   -3.08305584808115     -2.61003554932902     -0.21731131689511
  O   0.12054036567224      0.58843615260520     -2.06423348885023
  H   0.76981207694505      0.67696822375019      0.59227510023776
  C   1.60595507554907     -2.51881851217639      0.77419022843626
  O   -1.16525718250813     -2.87538908407534      1.96246439589510
  C   -4.01109959460187     -2.21088527609264      0.93419578085015
  H   -3.56482399523210     -2.50590828493118      1.88367017580049
  H   -4.98596010522950     -2.69797512928074      0.83262830006338
  H   -4.16511747828179     -1.13027515014384      0.94479987242768
  C   -2.92496153441320     -4.13330138655611     -0.27658551327882
  H   -3.55483870469396     -2.28831124688911     -1.15159903190632
  H   -3.89810005763683     -4.62222335710600     -0.38528736152477
  H   -2.45103595974117     -4.48984459254501      0.63806044197772
  H   -2.29980722021471     -4.41935396871429     -1.12512838836738
  C   2.94861884817803     -1.88365223182274      1.12764127366814
  H   3.18907235018148     -1.08987730674317      0.41587010902302
  H   3.75107055341487     -2.62522882215804      1.09532039983341
  H   2.92161173846473     -1.44468493514175      2.12685837058691
  C   1.65942736237653     -3.14384547523224     -0.62803204588898
  H   1.37454868894269     -3.30727949068988      1.49705408436908
  H   2.44526537962635     -3.90217527180684     -0.68785011939532
  H   1.86465894127551     -2.37124829735849     -1.37366520090944
  H   0.70278122160167     -3.60582036728878     -0.87802750157270
