31
Coordinates from ORCA-job 1277optt
  C   -0.77011475148463     -0.10138866113692      0.07118992567303
  C   0.65975961612671     -0.04069329146946      0.07050987336616
  C   -1.42457816502194     -1.36357698726051      0.25644271397377
  C   -0.65412568794043     -2.60038757693508      0.02889665481761
  C   0.74927966593862     -2.49508638042393      0.07116702635088
  C   1.40385402229799     -1.28214107535293      0.10430279819928
  C   -1.62474416904093      1.02736500147177     -0.11100608666464
  C   -2.77086004687941     -1.40947038458845      0.66884410766904
  C   -3.03317172140828      0.96813691335401      0.29175106424206
  C   -3.55430034378591     -0.28596965180417      0.75546241366973
  C   1.40520856571676      1.14902238620311      0.22389328400223
  C   2.85008286079296     -1.24729619726494      0.13822111476359
  C   3.53425856143163     -0.09653083310521      0.21313488715757
  C   2.82197907468608      1.18746229941090      0.29839498427311
  C   -1.20712664143040      2.29178354224041     -0.79373510454569
  O   -3.74186799972666      1.99365565648532      0.22053600286716
  H   -3.17538845325755     -2.36749510134412      0.96167120375585
  H   -4.57668907297200     -0.31151395083165      1.10632390663957
  C   -1.22067977577824     -3.86947627347820     -0.28155188551585
  H   1.33918395257203     -3.40463576005583      0.01163830319399
  H   0.91928065704273      2.10481446848339      0.34024217720121
  O   3.46620437014285      2.25550079431529      0.44328182486155
  H   3.36704094884025     -2.20133282291920      0.10768220731753
  H   4.61624440513106     -0.06238567425960      0.24197669752575
  H   -0.36298313449897      2.12043393634042     -1.45894329254232
  H   -0.92463909438938      3.07492914805206     -0.08316930000695
  H   -2.05421219853632      2.68442204788056     -1.35475228478372
  C   -2.48930994806433     -4.22480169626188     -0.62732068640689
  H   -0.48534926657067     -4.67154606040656     -0.29518163138965
  H   -3.30141235714692     -3.51945681613678     -0.71599852632159
  H   -2.69608387278662     -5.25012099920177     -0.90389437334341
