22
Coordinates from ORCA-job 1287optt
  C   -1.50100321152892      0.51472144120741      0.00263134212051
  C   -1.53820454750857     -0.86756163488858      0.00665274312684
  C   -0.25691846208774      1.15447066031342     -0.00072784334887
  C   0.94559327118434      0.42638352697975     -0.00008547215887
  C   0.94737688030724     -0.96543399678739      0.00396676800571
  C   -0.34776221452868     -1.66446063330551      0.00758406091852
  C   2.15726453649282     -1.69936637135548      0.00468537195500
  C   3.44578175896544     -1.05045417435739      0.00127274154612
  C   3.42181581985958      0.36196340239762     -0.00296084657814
  C   2.24844956265330      1.14223469201855     -0.00384648891133
  C   4.66434090717280     -1.77142267361886      0.00207176086398
  H   4.35738506626251      0.91274260242637     -0.00579372993193
  O   2.25712914801584      2.40365152539177     -0.00747005344668
  H   2.07895256354546     -2.77693357311356      0.00795913679065
  H   -2.41439769825909      1.09462810985348      0.00204861636409
  H   -0.17621913061683      2.23422824555933     -0.00401374666090
  H   -2.47494498166802     -1.41229124031873      0.00937212716413
  O   -0.40258422966498     -2.91839974609558      0.01098947095631
  C   4.83309348704904     -3.13122792530188      0.00616410278600
  H   5.56025356683218     -1.15423249958764     -0.00087770930835
  H   3.99850060557032     -3.81966163374710      0.00930798043706
  H   5.82477730195190     -3.56245810366998      0.00636966731016
