24
Coordinates from ORCA-job 1296optt
  C   1.90483978632323      1.06065342811553      1.68926542578117
  C   2.59978626111860     -0.11587400393814      1.62426830723565
  C   0.60461405988172      1.15661425442426      0.99825671483206
  C   0.17666770630649      0.05111958574902      0.18198130401877
  C   0.85547951287361     -1.19496221806798      0.24362654923638
  C   2.10185086305574     -1.22807800568428      0.94278357882732
  C   -0.96663544713409      0.19598288240011     -0.76267716623659
  C   -1.51498740179359     -0.98019172071976     -1.30217632090346
  C   -0.94635384829512     -2.24954646302819     -1.11684330688778
  C   0.30194498481578     -2.32906653748777     -0.41171310688012
  C   2.46728745657269      2.18873922892233      2.48772606264676
  H   3.54890137129039     -0.17902669758863      2.14139151255883
  O   -0.10767911351413      2.17711051521158      1.16867398301063
  O   -1.34836789905429      1.34608160382899     -1.13439748626849
  H   -2.38153081223659     -0.84459484991692     -1.94002353271370
  H   -1.50333926516050     -3.14402410590767     -1.36016440275219
  H   2.66971750587278     -2.14463276442027      0.94184422716968
  O   3.55179706962356      2.12721389925641      3.01738202866901
  O   1.70422489148958      3.27270850269376      2.58227501078540
  H   0.86291302563409      3.08660515499176      2.07475919375554
  C   1.03025303931264     -3.61691936157646     -0.44344418127956
  O   1.82361450170702     -4.02972262816077      0.36904271814577
  O   0.72846403114693     -4.39615911706482     -1.51220878931566
  H   0.15714772016345     -3.88113058203207     -2.10302832343543
