21
Coordinates from ORCA-job 129optt
  C   -1.65641849415658      0.90075294774918     -0.00889579433076
  C   -1.89450584878893     -0.44522437035734     -0.00260976019520
  C   -0.33969144659402      1.37183271371947     -0.00594891835049
  C   0.72568150374150      0.49494497902209      0.00233006421431
  C   0.54498363425698     -0.93701050934625      0.00815897173215
  C   -0.84409709908626     -1.40910506116574      0.00694073848218
  C   1.70211729148307     -1.76164861434336      0.01441423452896
  C   2.97979372011456     -1.13641825335192      0.01632830027046
  C   3.18044180527962      0.20539413973591      0.01243348270342
  C   2.07172442706021      1.12008196062194      0.00485111630568
  H   3.82522639133509     -1.80955240134343      0.02099546239447
  H   4.17612062635423      0.63090381689354      0.01445277930469
  O   2.22690073929807      2.34488039607218      0.00055580880036
  C   1.83278144853990     -3.28367639160498      0.01835246400526
  H   -2.48372408631104      1.60107775277365     -0.01578130437699
  H   -0.11591836709697      2.42977130077791     -0.01009236778682
  H   -2.89846194114598     -0.84986264577856     -0.00398125311251
  O   -1.18373487209084     -2.63411380769005      0.01428770678084
  O   2.94436768518042     -3.78090152446164      0.01751719341554
  O   0.76592491431545     -4.02891283305111      0.02275797326439
  H   -0.12370203168852     -3.44816359487152      0.02076310195004
