27
Coordinates from ORCA-job 1307optt
  C   -1.67673857891769      0.60781746427931     -0.15894659042869
  C   -1.80728225054416     -0.66813828705532     -0.66169827399909
  C   -0.43943285259444      1.06718892260753      0.25462484486223
  C   0.75568917422855      0.23290192609901      0.16305456715934
  C   0.62325339170202     -1.12205997599544     -0.25469431504232
  C   -0.64199311064558     -1.58572871263299     -0.72331180331765
  C   1.84047295893556     -1.96632154690556     -0.18571983871584
  C   3.07692529848412     -1.35891675238778      0.06368011350322
  C   3.20842463033324     -0.02459250057506      0.35524149119256
  C   2.00977386824739      0.81913219135157      0.47156998511069
  H   3.96797978184947     -1.97466729004416      0.05195301303381
  H   4.16612912373979      0.43705686086295      0.55402926280997
  O   2.13761404688864      2.02582916460615      0.83302597203860
  C   1.72897054884236     -3.46964385063081     -0.27502327830742
  H   -2.54042774253646      1.26083934099697     -0.08845690823274
  H   -0.30832800058472      2.06485985704970      0.64996095354141
  H   -2.74569536951149     -1.07122460379270     -1.01657414431364
  O   -0.87009246567977     -2.73638030850547     -1.20232561920900
  C   3.06174253372486     -4.20047708632558     -0.41243638750264
  H   2.87608712153798     -5.26607113731739     -0.56308115538778
  H   3.67496224153310     -4.09796241451220      0.48664785341651
  H   3.64040935611449     -3.83350448910191     -1.26238230964970
  C   0.97460989546250     -4.00565355349163      0.95118597819066
  H   1.11251496953894     -3.70433257333025     -1.14283005697757
  H   0.81843947839090     -5.08385515292601      0.86074666970387
  H   0.00221083975310     -3.52559783569031      1.04305290751361
  H   1.55238111170719     -3.81273765663250      1.85970706900761
