18
Coordinates from ORCA-job 1318optt
  C   -1.66052097337058      0.68698927513239     -0.00000005210682
  C   -1.77086162831384     -0.67662178152296      0.00000046727820
  C   -0.40216318734617      1.30359400536362     -0.00000056461420
  C   0.81900419134567      0.52268848707395     -0.00000017131722
  C   0.70756381237777     -0.88280467503025     -0.00000013064193
  C   -0.56089925316414     -1.52103293786464      0.00000022761016
  C   1.93322288084055     -1.67699531009074     -0.00000055241970
  C   3.19362744335533     -1.06308852910635     -0.00000019645870
  C   3.27416697108565      0.29525142375223      0.00000024881147
  C   2.08193536737241      1.17851431206158      0.00000039119953
  H   4.10361835590198     -1.65076479846278     -0.00000016312538
  F   4.47051273344855      0.89821505997094      0.00000076246357
  O   2.23144402572774      2.43225276372373      0.00000074821252
  H   1.83399437512780     -2.75233026719450     -0.00000091939418
  H   -2.55041039239295      1.30719811254373     -0.00000030320331
  H   -0.30389809396117      2.38027508574482     -0.00000115892732
  H   -2.72472339112509     -1.18745521744752      0.00000094530878
  O   -0.68905323690949     -2.78557500864729      0.00000042132455
