12
Coordinates from ORCA-job 1320optt
  C   -2.97862218237976     -0.32286222644439      0.12763044957419
  C   -2.05807033049380     -0.59713764019039     -0.88277465663913
  C   -2.56550904877221     -0.11244610957392      1.47447161045756
  C   -1.11042564318136     -0.24966834836976      1.68645934354109
  C   -0.32535365686490     -1.02156342142080      0.72745708996816
  C   -0.68173998492849     -0.90019940374126     -0.72245860122284
  O   -3.30558221872077      0.22312503847185      2.41903779159304
  O   0.14128670273930     -1.10064975156636     -1.63781976943051
  F   -2.51927868947044     -0.55343855105688     -2.15458452672283
  H   -0.66026440691841      0.29101111733539      2.51025946787128
  H   -4.01953977981539     -0.17920154960337     -0.12811038898350
  F   -0.13010076119371     -2.32907915384009      1.11479218999349
