30
Coordinates from ORCA-job 1329optt
  C   -1.13624479449552      0.30558961315086      0.41045493472449
  C   -1.53353580417154     -0.95282652801568     -0.07779310439408
  C   0.17241154557450      0.71906676339837      0.37476633363531
  C   1.21743206924113     -0.10649718910512     -0.16063380762621
  C   0.83474449524007     -1.33012946835130     -0.76497227992438
  C   -0.51752897317682     -1.78360553764882     -0.77805759480799
  C   1.85337831747479     -2.06924793632068     -1.48130567177102
  C   3.16242236844716     -1.67579145442131     -1.48350206640344
  C   3.59746540771884     -0.54576439775801     -0.76078933578920
  C   2.56908111147465      0.34236177480449     -0.15483774147942
  H   3.90652573198577     -2.24737657401149     -2.02373120613893
  C   5.03436895268973     -0.24759306039725     -0.77194457865535
  O   2.90312150502003      1.47283904593386      0.27523789880718
  H   1.53806089280834     -2.95508385926764     -2.01657782533368
  H   -1.88331620608174      0.95021365317197      0.85247736615086
  H   0.45328446971888      1.68759108437651      0.76822398960126
  C   -2.89259277146846     -1.43200794978520      0.11784197807077
  O   -0.85709973741739     -2.80661065993167     -1.41479677092917
  O   5.73761472867884     -0.51400496500812     -1.72269316127095
  O   5.62699481991889      0.31817098939990      0.30582575451663
  C   5.05598511298554      0.21942708554614      1.60072185780917
  O   -3.30399357808801     -2.56526590225308      0.02494677362855
  O   -3.74376561844746     -0.41326996335196      0.47940859488606
  C   -5.07039999828607     -0.82570195339686      0.73681466163166
  H   5.88213713719751      0.02549273998351      2.28520262010359
  H   4.34038136585498     -0.60205648845981      1.66020601526403
  H   4.55011441346671      1.14533450580292      1.86186099808191
  H   -5.51563169859565     -1.28439345168805     -0.14704088770794
  H   -5.61903957731086      0.07266691669741      1.01201543058725
  H   -5.10353568795689     -1.55277683309383      1.54969082473306
