12
Coordinates from ORCA-job 1345optt
  C   -2.99674313254521     -0.06118166594711      0.04758056235438
  C   -2.17704724062175     -0.73004671320591     -0.94658729426187
  C   -2.63986634587061     -0.21124378332865      1.49291616458249
  C   -1.28876593708864     -0.60195577197480      1.69643937682334
  C   -0.37592006842149     -0.87431729970857      0.67095730912667
  C   -0.73831498084211     -0.99181519200563     -0.70064286375964
  O   -3.47425450690337      0.04171566760915      2.38293473359433
  O   0.01268934866643     -1.32385172617556     -1.63641335409103
  F   -2.79755721778314     -1.55194729861775     -1.81357455409807
  H   -0.96915629622909     -0.66602434063411      2.73092731936923
  F   -3.43313375564836      1.18188084328855     -0.29600463170231
  H   0.66485013328741     -1.06333271929962      0.90582723206249
