26
Coordinates from ORCA-job 1346optt
  C   -0.76802360878280     -0.32355647128581      0.66091556305663
  C   -0.47943701724678     -1.61674476945882      0.99243924635346
  C   0.24800741930472      0.57105717670146      0.28958070909959
  C   1.65855342495371      0.15156136961087      0.40842370708160
  C   1.91498335334094     -1.24809344597738      0.47224143131599
  C   0.88785054287485     -2.15639323710669      0.86266225630807
  C   3.30902817780949     -1.64952101439384      0.22483911079636
  C   4.35261836481295     -0.71365573134985      0.42209023547782
  C   4.08799007849104      0.60217607334443      0.62191196430968
  C   2.70514761012834      1.10644392597960      0.53065041838313
  H   4.86840417848934      1.33938148683117      0.75383212931643
  O   2.50161841324822      2.34882146601888      0.57908852790311
  H   -1.79799266323901      0.00975728970061      0.67344594290415
  H   -1.24390007805642     -2.31566968451397      1.30412206246150
  O   1.06739854927971     -3.37926798836191      1.10784876599728
  H   5.37686438039075     -1.06407897477327      0.34256041407769
  S   -0.08383402292648      2.12827392662814     -0.40951775903100
  S   3.78877580969706     -3.20248763350743     -0.38909649603594
  C   2.46148671540083     -3.62987492951358     -1.53638070968072
  H   1.57254754649568     -3.92411289713393     -0.98640227093398
  H   2.83686844074036     -4.46237056017446     -2.13076270905228
  H   2.25330175142442     -2.78326170155281     -2.18868815381304
  C   -1.80353926460612      1.93717767528381     -0.93637189664848
  H   -2.01903721013780      2.80119116879906     -1.56437113855695
  H   -2.49510537765079      1.94004670112152     -0.09478423133827
  H   -1.93577551423625      1.02358077908422     -1.51533711975180
