38
Coordinates from ORCA-job 145optt
  C   -0.47041104789416     -0.90431851327608      0.29771530928364
  C   0.69521181658498     -1.46821842084730      0.71822968436290
  C   -0.53230791866405      0.39809830970279     -0.25337218449284
  C   0.64532268140968      1.14624007774004     -0.36570354955972
  C   1.88353175590170      0.63845281238805      0.17238456256465
  C   1.95035917904941     -0.76702500168456      0.64137231225686
  C   3.02755282937371      1.44496323865395      0.19145652840790
  C   2.98001264305109      2.72102347477086     -0.41964176052036
  C   1.86433455869115      3.19796809527579     -1.03728403864435
  C   0.64491273016000      2.43505578197858     -1.09942129966238
  O   -0.32563101097422      2.83892253445409     -1.75575759795427
  H   -1.39906904546490     -1.45737696504841      0.39140739489442
  H   0.73034535023722     -2.47614814893246      1.11263011951009
  O   3.01377722104126     -1.33448916342245      0.92917801193191
  C   -1.89387783156948      0.88911074474120     -0.58162658663004
  C   4.29395101803004      1.11899458326958      0.89360058472113
  C   4.30825084292831      0.77687098246417      2.24859209009502
  C   5.51834413880396      1.26824179403247      0.24458627974800
  C   6.71918150268327      1.06937281879812      0.91689718670928
  C   5.50010379081642      0.58769287497540      2.92337518490985
  C   6.71652634146758      0.73038635423170      2.26048038535728
  H   3.36404596140886      0.65028508818535      2.76234167733331
  H   5.48464468152465      0.32172160397985      3.97334782171340
  H   7.65676105559173      1.17760920287350      0.38490772697771
  H   7.64910145902862      0.57642639083153      2.78910049308556
  H   5.52544089267368      1.52593718836476     -0.80785829787864
  H   1.85242691687162      4.16559006875631     -1.52342326194268
  H   3.87325861678620      3.33525529892408     -0.37565501157505
  C   -2.39583511402074      2.07041921072507     -0.02876853276442
  C   -2.75301446948171      0.11428150715782     -1.35871328183698
  C   -3.70324095667633      2.46154618652980     -0.25045429927802
  C   -4.06577507092784      0.50867433122609     -1.59205057313365
  C   -4.54838391484708      1.68326179756189     -1.03765998720847
  H   -4.06835489535046      3.38267830657362      0.18727759220483
  H   -5.57036233021707      1.99420841048764     -1.21570207746018
  H   -1.73607996442679      2.68498883831129      0.57009100220346
  H   -2.37754355152719     -0.80094603175349     -1.80081885073773
  H   -4.70862086207319     -0.10459566300070     -2.21209075699143
