33
Coordinates from ORCA-job 153optt
  C   -0.77726928847356     -0.05618005647741      0.09852261156126
  C   0.69203311596197     -0.10660225097480      0.21522292152390
  C   -1.44233332631099     -1.33687727365256      0.12866060809181
  C   -0.72386530728126     -2.51984321159558     -0.05399753877688
  C   0.64945067014293     -2.51847664637742     -0.22800242679236
  C   1.37469394542649     -1.33898036750985     -0.07670174227318
  C   -1.53202645741470      1.10686240810236     -0.04422960807381
  C   -2.86012932287917     -1.38984887710762      0.25381299728114
  C   -2.99125918277219      1.03926361224318      0.10953823929041
  C   -3.60004761317471     -0.26356857503963      0.29187696535396
  C   1.43434246056870      0.94738328628683      0.68965731041344
  C   2.80328064731587     -1.35177523941419     -0.05872161885795
  C   3.52862841385933     -0.27222147769111      0.31280399519461
  C   2.87535865524671      0.95127039740005      0.75121536675334
  C   -1.08555023984314      2.49029466519997     -0.50255093321974
  O   -3.70846576746008      2.05630950310254      0.05553548401837
  H   -3.32782841061006     -2.36804925239215      0.31043347377048
  H   -4.67811276410866     -0.28011260089960      0.39366159067193
  H   -1.27512667905484     -3.45324355923866     -0.08921993471391
  H   1.18125119061553     -3.44551809013310     -0.41151083713019
  H   0.94566376102858      1.83852179316362      1.04798269539033
  O   3.52241634234125      1.93738459620322      1.15032414261009
  H   3.29797980916570     -2.28083895024631     -0.32640530216723
  H   4.61152303835658     -0.28856056079571      0.33626534851205
  C   -1.02591349086592      3.53775513865607      0.61798059077034
  H   -0.91147300636975      4.53357115195982      0.18116078600833
  H   -0.18814438761132      3.38147021223041      1.29765309160239
  H   -1.95368163254968      3.51926694895558      1.18830050106058
  C   0.12157864563692      2.58458113010023     -1.44331473281126
  H   -1.94577742390998      2.80242999555132     -1.10000048473538
  H   0.20171774533023      1.70085049431408     -2.07871837631628
  H   1.07153328248808      2.71039223634562     -0.92798873604058
  H   -0.01426742279487      3.45591941973081     -2.08923644797000
