30
Coordinates from ORCA-job 158optt
  C   1.78277042930010      0.60997984492267      1.41202719646555
  C   1.87471958420244     -0.74191036377218      1.19602663818179
  C   0.87044371110574      1.44404576282690      0.60267755979095
  C   -0.09235719570633      0.73301741450320     -0.24529307399610
  C   0.00798249250696     -0.66748614608577     -0.41246206723504
  C   1.02508819034435     -1.37873631145388      0.30273486524910
  C   -1.14268227277709      1.50354596014291     -0.92172981716234
  C   -2.00106139715968      0.71914121937606     -1.79443769666382
  C   -1.87239182589292     -0.62172115205993     -1.95622644218230
  C   -0.88248820665729     -1.37344045022813     -1.27981807077072
  C   2.67824565352197      1.20257307115325      2.43337097308858
  O   1.00327703917892      2.66365866588097      0.63221763202239
  O   -1.33779044393798      2.71234372212208     -0.78479427980014
  C   -0.82940536817575     -2.81403830634861     -1.50469803392976
  H   1.10817659118894     -2.44198980741621      0.15662972337706
  O   3.79339904293941      0.80152964869412      2.67631922144476
  O   2.10906274098667      2.19396599648656      3.12665164119725
  C   2.93451766430687      2.79973702552089      4.10605371712465
  H   3.83188405815202      3.21357254020007      3.64591989047918
  H   3.23419733665303      2.07419205763985      4.86328601409794
  H   2.33664983535818      3.59104391382460      4.54972933945619
  H   2.61275642375991     -1.31439388364907      1.74498605268985
  O   -0.07662595581209     -3.64054757491391     -1.02626164358714
  O   -1.78722766408897     -3.23469681908509     -2.38799006561066
  C   -1.79251095621426     -4.62408006382842     -2.64454120673715
  H   -0.84155652431046     -4.94821303055438     -3.06881653475986
  H   -2.59926735002826     -4.79436721562389     -3.35430192919170
  H   -1.96899205635794     -5.19091588884726     -1.72958195883468
  H   -2.77165463990171      1.27363289604579     -2.31649578729243
  H   -2.54855893648476     -1.14247272547320     -2.61945185691142
