36
Coordinates from ORCA-job 160optt
  C   -1.76580739369119     -0.07917312088745      0.50599193671874
  C   -1.76794561849114     -1.30694320441701     -0.11325067341632
  C   -0.58679431456964      0.65036713473727      0.74024277835421
  C   0.63921062122926      0.14857933766181      0.34298849937418
  C   0.70800954712384     -1.11673832511647     -0.31185492555966
  C   -0.51616744762404     -1.89339457382758     -0.56450667497371
  C   1.93401894926333     -1.61855330108614     -0.70905689711722
  C   3.11303895681655     -0.88904682274888     -0.47473732442614
  C   3.11517607512418      0.33873025810308      0.14449060226676
  C   1.86338076718238      0.92526033269594      0.59559717234591
  H   4.05371926897687     -1.32336757036736     -0.79654787162426
  C   4.36105804013209      1.15692171109596      0.37927793610480
  O   1.83507083534537      2.03003872740740      1.16946816012541
  H   1.96216227576064     -2.58237974639841     -1.19995456073846
  H   -2.70647974415637      0.35511311968282      0.82787267940674
  H   -0.61493700607959      1.61418912910277      1.23115021074353
  C   -3.01380535957523     -2.12520524319510     -0.34791235845443
  O   -0.48783122835955     -2.99829224062602     -1.13814533047379
  C   -3.06587198562402     -3.30719935854867      0.62756209409642
  H   -2.15604979027175     -3.89965936653862      0.54369592018294
  H   -3.92553958890388     -3.94973086740835      0.41640866539426
  H   -3.15603008611124     -2.94019568273280      1.65359306125930
  C   -4.30765788802046     -1.32241371812425     -0.27115107917149
  H   -2.91837699649766     -2.54823102821304     -1.35255704691709
  H   -5.15699067652581     -1.94958297316718     -0.55147154978950
  H   -4.28314049561725     -0.45707344433018     -0.93601173258847
  H   -4.48969199712552     -0.96145040297856      0.74446176408832
  C   4.41332764694397      2.33887444378612     -0.59623657304071
  H   4.50357497701988      1.97182295221251     -1.62224243370501
  H   5.27301962010113      2.98135008160037     -0.38501169111223
  H   3.50354012931050      2.93140422312658     -0.51249902490704
  C   5.65486916578488      0.35404471124218      0.30270870939594
  H   4.26553024794903      1.57999076087337      1.38389450298523
  H   5.63021222998768     -0.51127535312929      0.96759094572321
  H   6.50420465741863      0.98116841209674      0.58312192612094
  H   5.83701360577403     -0.00695899158356     -0.71286981667129
