26
Coordinates from ORCA-job 162optt
  C   2.38215156935837      0.36658883095671      1.17123603043005
  C   2.74574399220169     -0.90768598568034      0.77200424606843
  C   1.24159819999558      1.07302053642081      0.54386097159524
  C   0.43109934893269      0.28890597417638     -0.38006969306020
  C   0.83310554866070     -1.02631958265006     -0.74493594011707
  C   2.01134714311594     -1.58791404299761     -0.17799411372415
  C   -0.78356052169968      0.87564407085436     -0.94841414285710
  C   -1.49860835248083      0.02553494495907     -1.89482182495861
  C   -1.09358560125290     -1.23438137566955     -2.21911566794109
  C   0.06530495597997     -1.79660195316041     -1.65623884684225
  O   1.05249412632020      2.25944339064490      0.81871130653366
  O   -1.23340494667555      1.99487401562309     -0.68364114987737
  H   -2.39254928119135      0.45748868932171     -2.32881379678354
  H   -1.66673436656265     -1.83236232159934     -2.91934974610612
  S   3.41408856767793      1.17488801087880      2.32390727495345
  H   3.61415300978545     -1.37772731210405      1.22059510503325
  H   2.32385747685093     -2.57272740156623     -0.49589254407246
  S   0.48407450346966     -3.45213856489712     -2.11089768346098
  C   2.28611220937286      2.16622455621729      3.33229974641520
  H   1.99464381818359      3.07046601091915      2.81129011858889
  H   2.83063775495886      2.38715319908008      4.25033624226177
  H   1.39710781106350      1.58462958241127      3.56568045038181
  C   -0.09623372301586     -4.36171984611105     -0.65263858107036
  H   0.10070449156981     -5.42003357781731     -0.82538440517475
  H   -1.16475338197059     -4.20680468897791     -0.51260459404577
  H   0.44134564735158     -4.03014515923261      0.23489123783005
