36
Coordinates from ORCA-job 175optt
  C   1.53796311722146      1.19992748377095      1.76286127918962
  C   2.20989733817955      0.01988784014645      1.85900342652125
  C   0.49506202588520      1.42298839204299      0.76852976706470
  C   0.12654078653047      0.25863235078764     -0.02889231352087
  C   0.73902307511608     -1.02065114945428      0.21613866250807
  C   1.88477357896131     -1.09820159975140      1.07276382614331
  C   -0.87395742705136      0.41385701894286     -1.07871552780396
  C   -1.22982437036109     -0.80632485195787     -1.79316413654950
  C   -0.75127482979096     -2.02762891216320     -1.42912562176794
  C   0.19130254710088     -2.19174946432040     -0.40011081656855
  H   1.79312952628176      2.05365051534837      2.37960122638840
  H   3.05303454798504     -0.05121569577794      2.54083080440583
  O   -0.00844543723574      2.54967894481790      0.68268279470477
  C   2.94234561590980     -2.18799763258229      0.99255320200407
  O   -1.41434483530765      1.47518736492744     -1.41348231755970
  H   -1.95132359928551     -0.69228653493616     -2.59366017090553
  H   -1.13771251993337     -2.91324251649999     -1.92637174477579
  C   0.33522916537475     -3.60029096565695      0.15528354581597
  C   4.25717744484474     -1.60791558685722      0.44976034109718
  H   4.08754203765507     -1.10747962918586     -0.50413167008365
  H   4.99388216667659     -2.40266362834062      0.30268271965834
  H   4.68102508321437     -0.87646022606464      1.14001360919631
  C   3.19934553065550     -2.88508991151325      2.33186490846408
  H   2.63252893319113     -2.93270957393452      0.26577103261406
  H   3.95505946780665     -3.66763734603686      2.22455292570431
  H   2.28932667603245     -3.33479657081997      2.73178804041854
  H   3.56392218859285     -2.17033510549116      3.07248514055363
  C   -1.01936766339370     -4.10590176583061      0.67369890498508
  H   -1.43798631026400     -3.40269424488360      1.39441835830733
  H   -0.90366060269126     -5.07873391048709      1.15966173518877
  H   -1.73797392839834     -4.21736229597871     -0.14005691358148
  C   0.90459166097410     -4.59774711559261     -0.85807441177965
  H   0.98641428347568     -3.57605047589510      1.02383711361860
  H   0.24277177829988     -4.68544884607995     -1.72224944226164
  H   1.00404706262888     -5.59118126891543     -0.41271500034275
  H   1.88247588511867     -4.28345308577679     -1.22575327705125
