18
Coordinates from ORCA-job 178optt
  C   -2.35720713573491      0.34011034371715      0.10624915548421
  C   -1.57961271010079     -0.30826792618899      1.01651551120562
  C   -1.75753600735591      1.05717281123302     -1.00344403678944
  C   -0.32370513861684      1.04225015126967     -1.08330337994187
  C   0.45388907017159      0.39387633119828     -0.17303415732844
  C   -0.14578197792482     -0.32317558260924      0.93666549215428
  C   -3.85215819263348      0.30047550472762      0.27131192060510
  H   -2.04669587495223     -0.83720688326995      1.83777914038519
  O   -2.45469958946760      1.66837702426256     -1.86323845559997
  C   1.94884001387205      0.43348521167639     -0.33811098339816
  O   0.55137988044470     -0.93443834390545      1.79642065331178
  O   -4.39221222463140     -0.28649568163963      1.17629131938534
  O   -4.53610791572680      0.95922258165696     -0.65279073326875
  H   -3.86361491253380      1.35922938087676     -1.29682590959183
  O   2.48887670971179      1.02006720586163     -1.24335344116886
  O   2.63277758108742     -0.22542829138455      0.58588111504593
  H   1.96029182739503     -0.62522589105660      1.23005575233603
  H   0.14337659699606      1.57117205357436     -1.90457896282613
