32
Coordinates from ORCA-job 179optt
  C   2.10505536331532      3.57295665516311      0.94129224531080
  C   3.04789243944099      2.65661258040382      1.37581595448947
  C   0.81495801122700      3.14231514128178      0.40965946681795
  C   0.60394469448533      1.71496116739176      0.33201016207514
  C   1.53955967180780      0.81925284527946      0.72407535204261
  C   2.81860188949390      1.21865463863728      1.26463342160257
  C   2.36571678619106      5.03426043682295      0.93369952147436
  C   4.31493841950318      3.07297887338550      2.02752733929225
  H   -0.35271779475877      1.39989904659428     -0.06984108678019
  H   1.36835958181469     -0.24943017257203      0.65619628647937
  O   -0.06266644432528      3.94691438581649      0.02144573159594
  O   3.66042233090388      0.36593456258154      1.62897388278974
  C   1.43193422654177      5.93330078914396      1.45393583969208
  C   3.54138212342001      5.55304802770630      0.38790246117040
  C   3.79035090998264      6.91773934860021      0.38240219883503
  C   1.68257038001904      7.29785250785647      1.45848282307713
  C   2.86363648720924      7.79854268581385      0.92462281734112
  H   3.05656334582040      8.86442008941470      0.92519766010684
  H   4.71248403315664      7.29288456394214     -0.04465278191511
  H   0.50202926195767      5.54695300755490      1.84693907996985
  H   0.94704487212681      7.97555605749794      1.87523044752162
  H   4.27098295578375      4.86983827849488     -0.02911303082588
  C   5.53985350098865      2.53599149611860      1.62523431452146
  C   4.31602602933736      3.99690011502363      3.07426506858682
  C   5.49824135307388      4.39067195749659      3.68392489005339
  C   6.72466300033158      2.93581031403510      2.22617160156613
  C   6.71159824803370      3.86608847688058      3.25818052827279
  H   5.47074071802921      5.11136731944647      4.49218929971110
  H   7.63686489926399      4.17432096485633      3.72953079646124
  H   3.37305218591455      4.41542781702377      3.40389496072093
  H   5.54832371265532      1.79337642300749      0.83977462088689
  H   7.66399280725451      2.51196959929986      1.89159812705601
