20
Coordinates from ORCA-job 183optt
  C   -1.59163098130669      0.68034798324053      0.00000623656808
  C   -1.71927473417390     -0.68843913430451     -0.00000178982787
  C   -0.33435334928597      1.29921015756257      0.00004943127052
  C   0.82188233114572      0.53622119779323      0.00008953597074
  C   0.73217767260690     -0.89085262356821      0.00008298304002
  C   -0.56784809719642     -1.57208283675571      0.00001667900689
  C   1.88841301678717     -1.65384194916284      0.00005746514651
  C   3.14569059433744     -1.03497998231612      0.00001129368399
  C   3.27333484923588      0.33380699523897      0.00000636786090
  C   2.12190846325358      1.21745121585530      0.00006508312081
  H   4.04540954986184     -1.64635849546463     -0.00004211361450
  O   4.49412981935622      0.95165739211750     -0.00007652006119
  O   2.24766074254671      2.45180525106188     -0.00000056307797
  H   1.79585235378608     -2.73162416469487      0.00003417240004
  H   -2.49135027445418      1.29172620877960     -0.00003920020387
  H   -0.24179281473397      2.37699237910432      0.00003691502704
  O   -2.94006946889775     -1.30629004295871     -0.00007631371921
  O   -0.69360007268275     -2.80643694579829      0.00002420818173
  H   5.17060810640364      0.26833732345826     -0.00012843168716
  H   -3.61654770658953     -0.62296992918828     -0.00011543908546
