12
Coordinates from ORCA-job 191optt
  C   -1.73980621513321      0.13707038549537      0.00002533754865
  C   -1.85267946699347     -1.22048844149924      0.00002584362626
  C   -0.46046022695188      0.81133177942562      0.00019176219836
  C   0.69014110995509     -0.06468494963628      0.00002599369518
  C   0.57726780071997     -1.42224370798333      0.00002529072750
  C   -0.70207811017397     -2.09650507484831      0.00019155450305
  H   -2.61861706496959      0.77367274400999     -0.00008384859583
  H   -2.82468076745764     -1.70303962113111     -0.00008267971880
  O   -0.35639648709114      2.06369971697166     -0.00007649621963
  H   1.66214238979300      0.41786618415408     -0.00008254316807
  H   1.45607868246948     -2.05884599076975     -0.00008404657546
  O   -0.80614164416664     -3.34887302418869     -0.00007616802122
