26
Coordinates from ORCA-job 193optt
  C   1.57308707083927      1.42206515044291      1.56463711887082
  C   2.15124133978581      0.20360489765716      1.82245339716193
  C   0.50261759787997      1.61320304123675      0.58830946547805
  C   0.06670965066856      0.41509795094003     -0.11861817500742
  C   0.68930654549915     -0.82300687360086      0.17385284776083
  C   1.72652694748270     -0.93278850181400      1.13965969380919
  C   -0.99289327472215      0.45401926411680     -1.11785236321948
  C   -1.33383588993039     -0.82328697196545     -1.75698030881697
  C   -0.70289749663586     -1.99249513493821     -1.44245556654742
  C   0.31309652481241     -2.01228633453982     -0.47710610266840
  H   1.90763766089437      2.30255558499834      2.09826576267977
  O   3.14840503533638      0.18289978526452      2.77178891858559
  O   0.04660988048442      2.75127832053378      0.43008895982437
  O   -1.62008741501387      1.46014388884545     -1.46534358469846
  H   -2.12226410882003     -0.76127194253220     -2.49385285599114
  O   -0.98696969243834     -3.21033808154511     -2.01282052159348
  H   2.15937390674266     -1.90673543096099      1.31736079103288
  H   0.79976143437417     -2.94967141092981     -0.24046215285523
  C   3.74207562998417     -1.05429796490776      3.05534215054461
  H   4.49289282656366     -0.86874419491603      3.82156808145031
  H   4.22839677907560     -1.48131147089733      2.17204763537312
  H   3.01086091422495     -1.77503247463056      3.43608909395951
  C   -2.00592907200501     -3.23143026282028     -2.97684857828311
  H   -2.09583602222016     -4.26379901297413     -3.31036314589137
  H   -1.76130825712595     -2.59228601524490     -3.83090095129320
  H   -2.96029851573650     -2.89973580481826     -2.55621960966530
