26
Coordinates from ORCA-job 198optt
  C   -0.91566028007908     -0.02350829152711      0.32097932522008
  C   -0.83145149882893     -1.39897368017487      0.32604336571958
  C   0.21747720507530      0.79389722522975      0.20609007202884
  C   1.47591396706860      0.23242734819920      0.07155714544996
  C   1.62574585132882     -1.18309626348591      0.05930492067662
  C   0.45563452129741     -2.07002603986223      0.21143427126117
  C   2.88418956845439     -1.74456180232718     -0.07517343194604
  C   4.01734336716374     -0.92716123262692     -0.18994771098674
  C   3.93313181590022      0.44830377991243     -0.19500290512762
  C   2.64601902952554      1.11934775849051     -0.08063376477810
  S   5.39535568523585      1.39854621144705     -0.44597413461743
  O   2.52944355752841      2.35240093636838     -0.10670816748398
  H   -1.89517216198492      0.43383506690926      0.40464650893283
  S   -2.29364388765343     -2.34920217012070      0.57725689752303
  O   0.57224134286367     -3.30306920816375      0.23774805572309
  H   4.99686229056208     -1.38450698240636     -0.27351382269008
  H   0.12890100348650      1.87184899489873      0.20287332596420
  H   2.97276160236251     -2.82251421627247     -0.07196186935238
  C   5.35551375432205      2.50790790744039      0.98205201828180
  H   4.45060192045528      3.10835814904599      0.94639768683986
  H   6.23798605067912      3.14290724530746      0.90922191531140
  H   5.39798641887134      1.93434740236105      1.90677149312991
  C   -2.25391618229025     -3.45875415807010     -0.85062319176228
  H   -2.29651546690940     -2.88531943478634     -1.77541509433759
  H   -3.13635579110507     -4.09377844621008     -0.77760792920630
  H   -1.34898368332984     -4.05917609957618     -0.81500497977383
