24
Coordinates from ORCA-job 202optt
  C   -1.61984077608362      1.05758925643486     -0.05342457269260
  C   -2.01278422470211     -0.22144636913567     -0.34366599933140
  C   -0.26437390086293      1.37798803177809      0.14306643663380
  C   0.70573921897953      0.39322109747054      0.08924032837745
  C   0.34026720695015     -0.96675137627131     -0.15198542512920
  C   -1.06183835978550     -1.29672419524297     -0.47571652053861
  C   1.32194789962985     -1.95185696624539     -0.15621561921909
  C   2.68113825490902     -1.59743725098243     -0.02188323699792
  C   3.07545147782586     -0.30712651609631      0.19105949682594
  C   2.12164736355314      0.77166900083779      0.28946574535573
  H   3.41864421919644     -2.39085800547545     -0.07855216452749
  H   4.12047403047040     -0.04807979948022      0.30675464171385
  O   2.46514932045592      1.94067333350417      0.51534133659829
  C   1.00476887730848     -3.39805454223256     -0.26434868109058
  H   -2.36304200265568      1.84528522074514      0.00966981343591
  H   0.05144055621307      2.39286719932502      0.34516597093757
  H   -3.04993808271599     -0.46937091025029     -0.53352263455687
  O   -1.39892623247191     -2.42403684306630     -0.87788275874071
  O   1.45124830295144     -4.14741034224121     -1.09677719268575
  O   0.24438540107526     -3.82814707576242      0.76022039602672
  C   -0.35538993591322     -5.09542354628740      0.55855396226103
  H   0.39895565072063     -5.86941614430445      0.41448574529346
  H   -1.00354533764964     -5.04735196214783     -0.31772476599197
  H   -0.94252892739863     -5.29793129487336      1.45119569804247
