31
Coordinates from ORCA-job 203optt
  C   -0.94526359938970     -0.20857848057215     -0.07677424287563
  C   0.52576362737166     -0.14324361661544      0.06435104871524
  C   -1.54138308110574     -1.52628694869521     -0.11193861716794
  C   -0.73138763398415     -2.65816455895632     -0.22474276168930
  C   0.64623113226947     -2.56206319363060     -0.31730337129477
  C   1.29083034964546     -1.33938556417712     -0.17101524287082
  C   -1.75497325185391      0.91469500925162     -0.20083574422238
  C   -2.97584661773465     -1.65479640397667     -0.08803289416653
  C   -3.20626466180371      0.78872574354976     -0.16414817335118
  C   -3.75601443547143     -0.54445518230597     -0.08778779110871
  C   1.20866849343695      0.98165044036133      0.47816479959044
  C   2.71777238949217     -1.27355055376166     -0.13005705194480
  C   3.37737017280267     -0.14261294872572      0.20319750222295
  C   2.64730258164450      1.05861053281413      0.57606988712688
  C   -1.28073827213259      2.31565961261657     -0.45597181050562
  O   -3.95636430320758      1.78210375942264     -0.21597154016578
  C   -3.61373815467569     -2.98653130023553     -0.09666330171021
  H   -4.83641382576943     -0.62169827630831     -0.10338589180410
  H   -1.18577264548069     -3.63838854650450     -0.25956095742585
  H   1.24401629831229     -3.45724330136414     -0.45000967060259
  H   0.69166248979768      1.87349938227909      0.79025224058444
  O   3.23221341351534      2.08756028290254      0.95996380535243
  H   3.26449254909264     -2.18506198050145     -0.35302497622867
  H   4.45877932034067     -0.09765005548909      0.24601358724069
  H   -0.34035598179653      2.33007151989492     -1.00434192029969
  H   -1.13951738977037      2.88561819380625      0.46683534554852
  H   -2.05577250749088      2.83304862273245     -1.01923364193608
  C   -4.67654326537557     -3.31636592096376      0.62910770313945
  H   -3.18938005682479     -3.73411381259723     -0.75929107082895
  H   -5.12029000323449     -2.61425520080796      1.32500548667676
  H   -5.12755313061943     -4.29746725344240      0.55111926600177
