26
Coordinates from ORCA-job 214optt
  C   -1.43394469254101      0.59492866596342      0.03388651645494
  C   -1.56226472115232     -0.77142500440777      0.04123963983284
  C   -0.17296621192021      1.22792740864936      0.01789716708049
  C   0.97639900971368      0.46781465657355      0.00938712763033
  C   0.90793778140568     -0.95486650536465      0.01633534043715
  C   -0.40457412868735     -1.62921446878797      0.03267682813819
  C   2.05774325302913     -1.72542542970103      0.00811137587897
  C   3.31595107455195     -1.09165880959599     -0.00745802814850
  C   3.44089515183382      0.27620941087547     -0.01490695358054
  C   2.29791198122583      1.14193383314759     -0.00722241325334
  O   4.48996713044242     -1.80384881153329     -0.01596320709911
  H   4.42400577518768      0.72786437563763     -0.02680949811320
  O   2.39419180405405      2.38000224114181     -0.01323841599268
  H   1.93920507245658     -2.79866479971563      0.01424937896937
  O   -2.49952734538052      1.45620994294458      0.04123750240752
  H   -0.10523188822206      2.30704317897534      0.01237154280460
  H   -2.52101866764687     -1.26911054236747      0.05367883198571
  O   -0.50591489306109     -2.86809414035092      0.03948987126178
  C   -3.78313046523875      0.89209974338947      0.05672825770929
  H   -3.95727985177582      0.27100014808231     -0.82749917643339
  H   -4.48566566365313      1.72352088553967      0.05966816846570
  H   -3.93958828660938      0.27967776029346      0.95028285470714
  C   4.40477736862651     -3.20537884779822     -0.00988892917060
  H   3.89613793898201     -3.57429360071376      0.88565388316412
  H   5.42927884773575     -3.57371760486750     -0.01957133885697
  H   3.87690462664335     -3.58084368600942     -0.89145632627981
