18
Coordinates from ORCA-job 21optt
  C   -1.60234374820515      0.68451434676867      0.00001276222755
  C   -1.73561353514566     -0.67726709168607     -0.00002815855217
  C   -0.33821063112842      1.29820864837876     -0.00002446782321
  C   0.80994232138104      0.52913254009018     -0.00002079950621
  C   0.72146971189808     -0.90535290215024     -0.00005085356685
  C   -0.59903325405018     -1.56958479856198     -0.00023485415769
  C   1.91352023868717     -1.61304451271964      0.00000984596823
  C   3.16870847259814     -0.99325039226428      0.00002947618517
  C   3.27829504368041      0.37262401104036      0.00000587595366
  C   2.11713315918009      1.22119789376043      0.00001872846721
  H   4.04330912825595     -1.63282414146568      0.00004856182816
  H   4.24506683501656      0.86019400902406      0.00000864080367
  O   2.20893278117988      2.46167442864546     -0.00004031376260
  F   1.93021809398330     -2.95600905470774      0.00000363786784
  H   -2.49086714273661      1.30786989602764      0.00009172442581
  H   -0.22950752084105      2.37410628209393      0.00001361603073
  H   -2.70891809261852     -1.15292808541510      0.00004881933668
  O   -0.74555186113505     -2.80092107685877      0.00010775827401
