24
Coordinates from ORCA-job 224optt
  C   -2.22761503750160     -0.54104696592037      0.57018677750097
  C   -1.51614765280841     -1.69024024300328      0.35225792095474
  C   -1.87807370645496      0.71509442644452     -0.05834018116456
  C   -0.71886546674000      0.67027897739287     -0.92340194859199
  C   -0.01485848592384     -0.46718039990611     -1.14024245386332
  C   -0.36162624178433     -1.72835523993617     -0.52047264157259
  C   -2.01673535326432     -2.97838633331459      0.93602916542423
  O   -2.53528654437372      1.76242832720633      0.13399929078477
  O   0.28644692610158     -2.77898184771180     -0.72558469578829
  H   -0.44222060344517      1.60604234758062     -1.39589722210889
  C   -3.34224053362020     -0.54543529326384      1.57542248466021
  H   0.84734926213522     -0.48228645916820     -1.79730588219894
  O   -3.14040292004485     -0.72408135202959      2.74679019845862
  O   -4.59443955959017     -0.35356065546980      1.14452442510575
  C   -4.84507588298006     -0.31697594010259     -0.25696495321756
  H   -5.92784867037691     -0.32664944641429     -0.35915188337729
  H   -4.42492875072433     -1.19967022487881     -0.74057338062985
  H   -4.43408007574932      0.59479526875525     -0.68883269247416
  O   -3.08044681567445     -3.44457931197498      0.62390683465658
  O   -1.26066671812625     -3.61364834835178      1.83877380369840
  C   -0.08919614399184     -2.97571474500593      2.33823680386640
  H   0.67897779136180     -2.94270257732671      1.56693235553731
  H   0.24150854364374     -3.58816023326610      3.17404035760870
  H   -0.32462736006751     -1.97159373033459      2.69297751673070
