19
Coordinates from ORCA-job 234optt
  C   -1.62216575600004      0.67394518035748      0.00000131162126
  C   -1.73974334394839     -0.69250968826231     -0.00000095721370
  C   -0.36314579341342      1.30414497716459      0.00000701908081
  C   0.79574077432261      0.55185790022232      0.00000704787182
  C   0.72480349177683     -0.87358169801655      0.00000977193251
  C   -0.58574990193488     -1.55464371331434      0.00001330799722
  C   1.87969233974921     -1.63122702424727      0.00000326905144
  C   3.13411298042790     -0.99065564282815     -0.00000080062578
  C   3.26579301488904      0.37096968316057     -0.00000563865285
  C   2.11297763809814      1.23143229684157     -0.00001529371497
  O   4.27780621466668     -1.75259252788160     -0.00000220553864
  H   4.24678434678624      0.82697447300664     -0.00000662143630
  O   2.20750798149412      2.46878909107778      0.00000977487691
  H   1.79722304834878     -2.71276084322939      0.00000548657771
  H   -2.51740125778246      1.28693623224109     -0.00000622366902
  H   -0.27237081438480      2.38252388331738      0.00000064864643
  H   -2.70809879569720     -1.17846030038983     -0.00001132517261
  O   -0.67960640819762     -2.79570530183910     -0.00000894310144
  H   4.01517024079925     -2.67760697738087      0.00000037146922
