13
Coordinates from ORCA-job 239optt
  C   -1.70890221842567      0.11435201203343     -0.00000657257473
  C   -1.81585062359109     -1.24421101412611     -0.00000470951506
  C   -0.42404342014624      0.79972437933896     -0.00003225980007
  C   0.71380254452878     -0.08397333057556     -0.00000169191706
  C   0.61190699846292     -1.44383691539178      0.00000091747870
  C   -0.66644941269941     -2.11821986266973     -0.00002157517264
  O   -2.80993627382635      0.92863546468020      0.00000708238756
  H   -2.79336391358161     -1.72052417948741      0.00000619326379
  O   -0.32913365608470      2.04974214705787      0.00000335970144
  H   1.68249673843032      0.40438491446460      0.00001442962186
  H   1.49308346541900     -2.07572418826185      0.00001788222988
  O   -0.77412415067675     -3.36820170985166      0.00000032999866
  H   -3.58630607780918      0.36098228278901      0.00001661429767
