22
Coordinates from ORCA-job 241optt
  C   2.00643373137619      2.10876338966190      0.87912843628612
  C   2.78157410791127      0.98318358825367      1.14270332542044
  C   0.63495408393661      1.96344736272661      0.33223098990300
  C   0.17163289507933      0.59918965009920      0.09780230353861
  C   1.01927285088560     -0.50025769572330      0.38610277674750
  C   2.32082235336287     -0.29404979713558      0.91002746799780
  C   -1.16551316888232      0.34251960181085     -0.43510710911162
  C   -1.51007332536873     -1.06718447313066     -0.64324796853115
  C   -0.65989506572480     -2.09889938501085     -0.35396681406049
  C   0.60869406510169     -1.83024976629169      0.16399180361452
  C   2.59429115956985      3.40370678173004      1.15858421034570
  H   3.78119244749326      1.12669830191561      1.54391720929134
  O   -0.04100216451952      2.96976777923038      0.10300886691929
  H   2.94257939464155     -1.15594492669466      1.12119163027504
  O   -2.01065060331921      1.19939792112950     -0.71670493454179
  H   -2.50088565644763     -1.24366328078460     -1.04500711554772
  H   -0.96684472169626     -3.12558172806370     -0.52482310487787
  H   1.29388342877998     -2.63566190145601      0.40047743113288
  C   2.07608379113515      4.62980049384637      0.99627261974656
  H   3.60636188066944      3.34190692140594      1.55785934869986
  H   1.08050130608866      4.77121993655163      0.60599117391545
  H   2.67267720992699      5.49522122592932      1.26301745283650
