33
Coordinates from ORCA-job 265optt
  C   -0.97114230783366      0.12322473948053      0.11808449033347
  C   0.49792763515443      0.12672552366104      0.01608359718445
  C   -1.65993249232751     -1.13048073486108     -0.00156253295633
  C   -0.94841057301588     -2.31142752921657     -0.20271042829267
  C   0.43557279581862     -2.31105985736361     -0.29517740068162
  C   1.16591100437231     -1.12974639291652     -0.19023942253106
  C   -1.71462838263733      1.26201813074502      0.32826409935808
  C   -3.08618171728793     -1.14572136038353      0.09536546462579
  C   -3.14841033758883      1.26689622405868      0.42958465255307
  C   -3.82756087968899     -0.02937016062381      0.29235976509520
  C   1.25291812512141      1.27427161718513      0.10983974301080
  C   2.59254796952132     -1.13813900285602     -0.28582025908339
  C   3.32612768858680     -0.00771391963383     -0.19041639782215
  C   2.69162231063534      1.28771687944143      0.01598665385387
  H   -1.24570338408318      2.23070595603175      0.43534706892001
  O   -3.79709149792275      2.31127962464939      0.63252878864950
  H   -3.56892177841778     -2.11448212608523      0.00692999291846
  C   -5.33297047774369     -0.01374702389447      0.37268540295117
  H   -1.49769851382527     -3.24281667684463     -0.28722343216929
  H   0.96981699359895     -3.24198619588181     -0.45103474628894
  H   0.79174041398452      2.24075052827153      0.26177052168792
  O   3.36025036362430      2.33297531008222      0.10449375779811
  H   3.07789963676533     -2.09734341726689     -0.44057306437723
  H   4.40693949182290     -0.01721426565662     -0.26312637591908
  C   -5.92402333118504      0.59405637988597     -0.90453034294808
  H   -7.01092582351383      0.67971962900529     -0.82450804982440
  H   -5.69291299538220     -0.04335814791739     -1.76212238999328
  H   -5.50627572818598      1.58453071772525     -1.07738539036909
  C   -5.95066035818195     -1.38055438177781      0.64288551947694
  H   -5.58699883189643      0.66230085876839      1.19441767901066
  H   -7.02909117675964     -1.28446211847031      0.78484931190576
  H   -5.52528125438748     -1.84458141003122      1.53454653970801
  H   -5.79110258714080     -2.05863739731027     -0.19960281578467
