16
Coordinates from ORCA-job 267optt
  C   -2.99841442609919     -0.16873673121621      0.08857403533283
  C   -2.21883152732379     -0.67626396109666     -0.91517723670121
  C   -2.52638177605294     -0.04059093870221      1.43231464788482
  C   -1.15006998493294     -0.46577596015825      1.67090454512432
  C   -0.37049785457698     -0.97333015947675      0.66715728021130
  C   -0.84252304818959     -1.10142770438228     -0.67659505226704
  O   -3.22684800616836      0.38571573404557      2.39092273351343
  O   -0.14206454219739     -1.52779010710873     -1.63518476776211
  N   -2.67090213669201     -0.85828477777292     -2.22559015315893
  N   -0.69805467280407     -0.28374580343761      2.98128962956479
  H   -4.02379093339127      0.13066064938618     -0.10329922591555
  H   0.65486451480629     -1.27277867697315      0.85903006844070
  H   -3.28186364919663     -0.12893676388277     -2.55931590140881
  H   -1.87721884102661     -1.02582591982302     -2.83436795924557
  H   -1.49167319659749     -0.11628060398511      3.59015530291094
  H   -0.08667991955696     -1.01274827541608      3.31498205347606
