24
Coordinates from ORCA-job 268optt
  C   -1.59851852382756      0.62631678219381     -0.04056464543234
  C   -1.52680404403122     -0.79605941803843     -0.03718214940806
  C   -0.46328187378887      1.36869742365643     -0.01281335515047
  C   -0.32267449045490     -1.42066291266896     -0.00662685937115
  C   0.90592472175836     -0.68600637141622      0.02307477664852
  C   0.83280071924406      0.76124245564869      0.02027796061766
  H   -2.56372840593381      1.11621928874834     -0.06559576212999
  H   -0.52216622563327      2.44721299559274     -0.01561392902438
  H   -2.43787532983786     -1.38061160805181     -0.05927640804700
  H   -0.27313575277790     -2.49964652763248     -0.00419542747457
  C   2.01254340214166      1.48592213088775      0.04972424857241
  C   2.15292634532299     -1.28808636979535      0.05412309636671
  C   3.30247358134718      0.89763851640233      0.08249549587024
  C   3.37711586908866     -0.57267857852796      0.08404736620363
  C   4.47001591810995      1.63729652598633      0.11294171626552
  C   5.77835671740938      1.05163888183102      0.14693324042681
  C   5.85639909686922     -0.47471951931722      0.14473869765734
  C   4.61394677433265     -1.19020565231078      0.11389577507406
  Cl  1.91884737421280      3.22757972172192      0.04645719961269
  Cl  2.23504902975929     -3.03029780695687      0.05705186108854
  H   4.43522348138637      2.71683610853708      0.11284705815938
  O   6.80566533710000      1.72426059281386      0.17540801794797
  O   6.94724134505674     -1.03886570709091      0.16893194299658
  H   4.68849493314598     -2.26777095221334      0.11480008252985
