30
Coordinates from ORCA-job 273optt
  C   -1.80645168927910     -0.67653494302635     -0.99577340275442
  C   -1.92944706912552     -1.83076646927417     -0.27663882449057
  C   -0.55894198420519      0.02813443957209     -1.16241493007191
  C   0.58083187104997     -0.57365414369669     -0.51080100979163
  C   0.49944380700314     -1.72757085148924      0.21103110684954
  C   -0.77143073285905     -2.42174638679839      0.37320877482661
  H   -2.67337034618764     -0.23621999418995     -1.48026091147965
  C   -3.27762909606928     -2.50798999999226     -0.15082948927077
  O   -0.46910526803195      1.08993974318184     -1.82611889270128
  H   1.52034745800303     -0.04459562017359     -0.62765099223953
  C   1.69596865771338     -2.38058039108078      0.86496994523624
  O   -0.84854140487699     -3.48220758028131      1.05227383331197
  C   -3.75897869008272     -2.56739256629125      1.30186030698028
  H   -3.07257820146334     -3.17383002572380      1.89165994375167
  H   -4.75997953695970     -3.00568757621885      1.35537951235922
  H   -3.79871414237838     -1.56619673878569      1.73523377837034
  C   -3.27575609442300     -3.90650228368816     -0.77532543725695
  H   -3.98730668529260     -1.89196428974551     -0.71319337390050
  H   -4.27519491829478     -4.34893835456977     -0.72747671239647
  H   -2.57719393568342     -4.54746831968505     -0.23857048755831
  H   -2.97054859668752     -3.85950993149222     -1.82243046552978
  C   2.88102361265545     -1.44299025380589      1.06598325052123
  H   3.30939345947371     -1.13727172810687      0.10828757272839
  H   3.66792377089074     -1.94697338674933      1.63247380175927
  H   2.58964308214688     -0.53966360780564      1.60457613484749
  C   2.12641244157527     -3.61296894014312      0.06165334147816
  H   1.35595978016381     -2.73919919388258      1.84064770714788
  H   2.95176590554827     -4.13299700173819      0.55695552221765
  H   2.46081632270019     -3.30893658245066     -0.93396406337210
  H   1.28913822297634     -4.30168702186852     -0.04196553957207
