36
Coordinates from ORCA-job 279optt
  C   -1.74972392783152      0.53438280166311      0.03147100837318
  C   -1.82138729175100     -0.69408720588839     -0.58234765607312
  C   -0.49768101621910      1.08111128310125      0.37806844577938
  C   0.67859997387391      0.39963280802257      0.11211162640859
  C   0.64111614959927     -0.87712824844227     -0.52169161081034
  C   -0.65417068831785     -1.47737115584593     -0.89957378364215
  C   1.81733498332796     -1.55336518498000     -0.77805547563064
  C   3.05703701587893     -0.99091268492925     -0.42199239028898
  C   3.16482279348324      0.23771620891300      0.18439179578835
  C   1.96670624749835      1.00272410724088      0.49121660612436
  H   3.95568492299309     -1.55961913430534     -0.63639706959767
  C   4.48074760150995      0.87921942968296      0.55000966512629
  O   2.03317709789600      2.11341470043963      1.05139729587910
  H   1.75994837082495     -2.52266336743360     -1.25593555230600
  C   -3.01117171863952      1.31929445355441      0.33898950414067
  H   -0.43194591574168      2.04815923727036      0.86181434256330
  H   -2.77517584175757     -1.13200724928672     -0.85827363234372
  O   -0.73159880246644     -2.58691750308918     -1.45352251603047
  C   4.80188922674876      2.02566678526152     -0.41629517428543
  H   4.94778307591100      1.63172617303901     -1.42579215953824
  H   5.71668939508206      2.54425610217327     -0.11520899559860
  H   3.98149266606814      2.74144594509153     -0.43177598191331
  C   5.65047526052042     -0.09670426025663      0.61348502129184
  H   4.33966271655374      1.32791465426706      1.53801079861068
  H   5.88659921255100     -0.49495451740667     -0.37676907157034
  H   5.43495387521311     -0.93999085136346      1.27218322122149
  H   6.54442479344848      0.41073691342107      0.98299356578744
  C   -3.76316331729170      1.69506868112748     -0.93907348293606
  H   -4.64284245460877      2.30242956388265     -0.71042756856854
  H   -4.09583199106122      0.79601022898511     -1.46173947206812
  H   -3.11857322320785      2.25563786165086     -1.61713906026998
  C   -3.93089665036343      0.55940851575339      1.29636353451584
  H   -2.70113479342896      2.24461246598761      0.83283060892309
  H   -4.80836624282701      1.15917472126814      1.55188103223698
  H   -3.40482082000182      0.30102106233404      2.21615540186990
  H   -4.27583068346701     -0.36925334090348      0.83736717883126
