22
Coordinates from ORCA-job 287optt
  C   -1.45706090120419      0.48024241573732      0.00288896693739
  C   -1.52418877256762     -0.88835803693842      0.00683132547714
  C   -0.22471639268206      1.16164092792146     -0.00057259787528
  C   0.96122737160433      0.45260890663329     -0.00003319902384
  C   0.94940485477273     -0.97846923025222      0.00405335393837
  C   -0.33752812099742     -1.70943999618439      0.00773401034908
  C   2.12913594552537     -1.69229119453789      0.00460061966863
  C   3.37820070842528     -1.02890904316892      0.00118041758830
  C   3.42627082064542      0.34882411336039     -0.00278167284125
  C   2.24708411808103      1.17518111716196     -0.00368671651400
  C   4.64550635208071     -1.77261738032156      0.00172899984651
  H   4.37932830843662      0.86677638171528     -0.00547741219943
  O   2.31101361602072      2.41668825969492     -0.00724443453047
  H   2.06226745918305     -2.77185723104094      0.00772206678703
  H   -2.37590686161911      1.05783687159355      0.00239603440821
  H   -0.17730289942785      2.24253149320396     -0.00372069635611
  H   -2.47401301764621     -1.40940442266515      0.00950976714935
  O   -0.39166371698047     -2.94987353013704      0.01113902497651
  C   4.80563980904353     -3.09430003273357      0.00571347318449
  H   5.53513269773631     -1.14756541235032     -0.00143944981839
  H   3.96518258373733     -3.77638724205030      0.00902800206384
  H   5.79566603783244     -3.53173773464142      0.00573011678392
