18
Coordinates from ORCA-job 288optt
  C   -1.61218564177942      0.68150977432809      0.00001130056238
  C   -1.74764690145336     -0.68005466043239     -0.00000849002134
  C   -0.34867216853635      1.29527147124743     -0.00001613958536
  C   0.79999111544652      0.52397599366860     -0.00002158287962
  C   0.70891058297375     -0.91120671139221     -0.00003526411328
  C   -0.61174725127620     -1.57432453143560     -0.00012563646624
  C   1.89777359822639     -1.62160977523161     -0.00000234205059
  C   3.15604701707432     -1.00912269457991      0.00001483267127
  C   3.23931334031680      0.35323668246495     -0.00000293457279
  C   2.09601524726163      1.22552294996399     -0.00002605796917
  H   4.04916734153140     -1.61912980789540      0.00003784118162
  F   4.45514936939641      0.92655696148999      0.00002386550472
  O   2.20994781957061      2.46134988342606      0.00000137294384
  F   1.91529195066031     -2.96175208088438      0.00000376924853
  H   -2.49994990995783      1.30571837481066      0.00005565206171
  H   -0.24034734419130      2.37105318300367     -0.00000152796981
  H   -2.72151973746277     -1.15424181953358      0.00003760661776
  O   -0.75899842780094     -2.80442319301836      0.00005373483635
