26
Coordinates from ORCA-job 28optt
  C   1.70563216362217      1.30925200464491      1.12944038069068
  C   2.34171898931550      0.08512005958154      1.27602781223000
  C   0.55053486409552      1.50317028555115      0.24427455892214
  C   -0.00598403227980      0.29234419616823     -0.33429788268449
  C   0.64653203711117     -0.96333957906445     -0.15621596585043
  C   1.84004005377898     -1.03036724227499      0.63920988614012
  C   -1.23870046834684      0.35913869392949     -1.12470560105862
  C   -1.67920912309838     -0.90527879517096     -1.69184640135987
  C   -1.01129747110493     -2.08337434360361     -1.50151399949560
  C   0.15589882223802     -2.13869382269141     -0.73291996994119
  O   2.29114819562628      2.34841384752780      1.77278525678453
  H   3.22091265518504      0.05085425780753      1.90371863813192
  O   0.15803403947119      2.66090014172730      0.03719501309681
  O   -1.90354392530166      1.38770760092559     -1.31729120782286
  H   -2.58579462766411     -0.85969299910170     -2.28406007723948
  H   -1.39121687650121     -2.99609458481374     -1.95105848313386
  O   2.42275497219217     -2.25989840806596      0.74056695576224
  H   0.67734248658642     -3.07139529843328     -0.58060062835166
  C   1.48692853963337      3.42218354472541      2.24326047149013
  H   2.03022516274676      3.84097275398681      3.09218814397598
  H   0.50976709189907      3.06363252032289      2.56746489297138
  H   1.33573472912505      4.17055798523545      1.47035701715367
  C   3.59136907565748     -2.36854959079534      1.50557626378792
  H   4.38803001852078     -1.72870530820307      1.11263216364258
  H   3.90263161794874     -3.40968432902162      1.44620402401661
  H   3.41142100954314     -2.10396359089398      2.55260873814137
