24
Coordinates from ORCA-job 293optt
  C   -1.58291551030950      0.63087314568068     -0.03991233864520
  C   -1.51074068054278     -0.79877183070620     -0.03742002948611
  C   -0.45194322399307      1.37979272434016     -0.01174549593506
  C   -0.31013165597572     -1.43006298552113     -0.00735738830054
  C   0.91079061479718     -0.68449251831156      0.02277738507473
  C   0.83770597187143      0.76092896469645      0.02096303341518
  H   -2.55171176216447      1.11375251728694     -0.06465703943172
  H   -0.50042864737020      2.46060837357664     -0.01352714491821
  H   -2.42592504484292     -1.37694290919473     -0.06000008283371
  H   -0.24961299293470     -2.51026524099586     -0.00534234309996
  C   2.01329686196503      1.46957220249640      0.05077789719565
  C   2.15161547617231     -1.27216752237603      0.05348401681659
  C   3.29887814064921      0.89105564558093      0.08241077820121
  C   3.37307141055144     -0.56794800970687      0.08434739910712
  C   4.45719000510138      1.64615937123346      0.11142628650514
  C   5.76245910074793      1.05400619987129      0.14452328207844
  C   5.84107821442123     -0.47831036358049      0.14564586385133
  C   4.60269113853542     -1.20085423611458      0.11540239862259
  F   1.94465335832182      2.82059831362924      0.04899169195179
  F   2.21740225067777     -2.62338105084784      0.05538329319794
  H   4.40466958327725      2.72656550343397      0.11023895698634
  O   6.79500074612914      1.72178812527297      0.17180371575885
  O   6.93700830541541     -1.03627735280000      0.17089281780032
  H   4.66076833949939     -2.28100706694386      0.11678304608726
