18
Coordinates from ORCA-job 2optt
  C   -1.63010489659977      0.66024713850088      0.00003042278056
  C   -1.75910425301695     -0.70360546299929      0.00003849250373
  C   -0.36815498959818      1.28308501832602     -0.00000246813011
  C   0.78608940218624      0.51877685320304     -0.00006461655850
  C   0.70607849604666     -0.90667666505196     -0.00002454655789
  C   -0.60962791973333     -1.57731869900593      0.00008447764082
  C   1.86007373977703     -1.66875497469201     -0.00005272080800
  C   3.11939388813716     -1.05086038892958     -0.00001470997563
  C   3.23363975019082      0.31493247029007     -0.00004796682350
  C   2.09269839558948      1.20722119969377     -0.00027927499335
  H   4.02023470997710     -1.65232013235173      0.00007425861703
  Cl  4.81046357662493      1.04651091775687      0.00011264777980
  O   2.19918260170372      2.43853460198965      0.00018047480460
  H   1.76940514234403     -2.74656156660312     -0.00000010420400
  H   -2.52051125752880      1.28030631203954      0.00002474543596
  H   -0.27137416966186      2.36045449828182     -0.00005454466750
  H   -2.73117330061781     -1.18172593420330      0.00003583902081
  O   -0.72062891582048     -2.81393518624475     -0.00004040586481
