30
Coordinates from ORCA-job 300optt
  C   -1.99077660513976     -0.03319193666942     -0.56490553163167
  C   -1.87593182146816     -1.38763019767154     -0.75757389620025
  C   -0.86849966505746      0.77975998417809     -0.30810337495230
  C   0.38345940977897      0.20890466625814     -0.20809266530449
  C   0.56247992970589     -1.19784723872407     -0.40180141109966
  C   -0.59930043231245     -2.06026157562758     -0.70329066790561
  C   1.81695129888256     -1.76368086919710     -0.31205206195858
  C   2.94114315301103     -0.96189742626277     -0.02474187290304
  C   2.82284404980296      0.39494402275778      0.17305667178235
  C   1.54739536059974      1.06468212511214      0.09956754477265
  C   4.25810279475168     -1.64001361842939      0.05773242631397
  H   3.68505163117886      1.00788355160244      0.39446832578390
  O   1.44027092282891      2.28490450667844      0.28871565324529
  H   1.93346486177111     -2.82765689035856     -0.46494639711822
  C   -3.32460812851050      0.63005366712507     -0.67955006459618
  H   -0.97779757321085      1.84847020526542     -0.18377268426616
  H   -2.73918779989140     -2.00356939803476     -0.97869615306347
  O   -0.49466753188826     -3.27969471439553     -0.88706409704096
  O   4.44859454583177     -2.81951961785408     -0.10162921866933
  O   5.27364136047954     -0.79428947276241      0.33974574704274
  C   6.55120036638511     -1.40151623512419      0.42695591990057
  H   7.24979865864904     -0.59952151811048      0.65107130325036
  H   6.81387529179822     -1.88380123437471     -0.51473724307103
  H   6.56761259654017     -2.15310599387458      1.21648773682061
  O   -3.53289379854954      1.59116862677926     -1.36361151235831
  O   -4.36376091831249      0.09484092887500      0.01088506484578
  C   -4.14107498872124     -0.74563747295222      1.13642965401255
  H   -4.10883458115122     -1.79399728309624      0.84280699916805
  H   -4.98396742549862     -0.57870314990777      1.80499482194448
  H   -3.21213496228373     -0.49341644120435      1.64586098325594
