27
Coordinates from ORCA-job 307optt
  C   -1.37183824101941      0.60194022403850      0.71798685878325
  C   -1.53798606512417     -0.74612541995395      0.86043283383279
  C   -0.14999403037353      1.11926089301862      0.26535788513524
  C   0.90566042632541      0.28024445019793     -0.03976433145215
  C   0.79990656477077     -1.15360449100183      0.09082596401567
  C   -0.49557524468715     -1.69651117246773      0.56201032842993
  C   1.91290160893701     -1.95721050946814     -0.22975555219233
  C   3.08970599304349     -1.30559028308052     -0.67673801055259
  C   3.22675157228799      0.04658312391888     -0.81694292649777
  C   2.14686593401419      0.93544420280943     -0.50680225575205
  H   3.94111996261960     -1.93271659958929     -0.92271002965332
  H   4.15298848316639      0.48887631895411     -1.16344414965403
  O   2.24725463983128      2.16855979378015     -0.62149932030764
  C   2.03149680218721     -3.47558481969730     -0.15567344231467
  H   -2.18691423822677      1.27837457303175      0.95353954607195
  H   0.00409204570817      2.18279887729826      0.14311056619532
  H   -2.47125586781745     -1.17407720164861      1.20588821653189
  O   -0.72540597965854     -2.91357095546094      0.70999975483756
  C   1.93499496684203     -4.03991022733380      1.26572483198395
  H   2.16676764773513     -5.10931229973365      1.25314318411580
  H   0.93698982762930     -3.90206160866619      1.67260384231027
  H   2.65949620116729     -3.54429358540390      1.91579566822938
  C   1.13852281063094     -4.22297828118825     -1.15190163758605
  H   3.05730328790102     -3.68050968759990     -0.47815796021912
  H   1.38406638036043     -5.28930489634529     -1.13673585133744
  H   1.31226568655201     -3.85034147218836     -2.16389006005363
  H   0.08841882519726     -4.10061894621990     -0.90140395290018
