19
Coordinates from ORCA-job 309optt
  C   1.61150772400151      1.28887004359923      1.57424498902271
  C   2.16188833003342      0.06188315066022      1.80885542716997
  C   0.54347478482727      1.50378363726492      0.60010320735559
  C   0.08780671353850      0.31595335304950     -0.12220735142712
  C   0.69234077369388     -0.93687773166449      0.15630316095647
  C   1.72035768183408     -1.06503750363168      1.11313062985687
  C   -0.97221055137752      0.38777195363706     -1.11863648857998
  C   -1.33087698801547     -0.87909125924006     -1.76808361151621
  C   -0.72422577945966     -2.07184075585965     -1.47399814541642
  C   0.28639019575700     -2.11704231273149     -0.51661704480542
  H   1.95917770269555      2.15846099268480      2.11702532669938
  O   3.16543518562987     -0.04584963745150      2.74917004357908
  O   0.09790024822225      2.64590837244170      0.44651878847278
  O   -1.58497380875640      1.40708343003851     -1.45662468701188
  H   -2.12004276762474     -0.80978726056663     -2.50737344856783
  H   -1.02705825796002     -2.98107225671362     -1.98277509697825
  H   2.15924285164674     -2.04008581262954      1.30094895778952
  H   0.77606692677599     -3.05217078456008     -0.27148090177792
  H   3.43902903453776     -0.96626961832721      2.78845624517865
