28
Coordinates from ORCA-job 310optt
  C   -0.78357425480154     -0.01589454613327      0.11448411164335
  C   0.68931941892977     -0.01769586063125      0.01932908309381
  C   -1.44923978342121     -1.25188847837943      0.44579835787104
  C   -0.69885355559470     -2.38767349585671      0.74608900247479
  C   0.68735067980555     -2.37191976802400      0.70517069120650
  C   1.39138281478034     -1.22859527973971      0.34302820350906
  C   -1.52404036239678      1.12636270293918     -0.08293208834584
  C   -2.89050053104180     -1.25025060584719      0.47924498455308
  C   -2.95830478131610      1.16122418932394      0.00036294621476
  C   -3.60313637063002     -0.11597700218495      0.27347321238344
  C   1.41607091690986      1.08507317788002     -0.36824831730562
  C   2.81991427498761     -1.23557635940244      0.27708583068080
  C   3.52590713557522     -0.14619352898206     -0.09454487674916
  C   2.85635930689652      1.09781166287308     -0.45173212984599
  H   -1.05013735569340      2.07262303966941     -0.30360141795805
  O   -3.62397818522183      2.19835928971840     -0.16371546025217
  S   -3.79441914042236     -2.75373647873682      0.80164920802972
  H   -4.68549380846062     -0.12607134357475      0.29625607037409
  H   -1.21518710886908     -3.29214596410223      1.04012852941426
  H   1.24264681814161     -3.26934406495172      0.95515334537588
  H   0.93366352052220      2.01330065215929     -0.64164901810378
  O   3.49730395217406      2.10186049080320     -0.80725775270560
  H   3.32782243902236     -2.15990211905592      0.53557465209998
  H   4.60783808213310     -0.15235196860250     -0.14637036297242
  C   -3.51075841198961     -3.61168219367123     -0.76648595660120
  H   -4.02878105651901     -4.56818560049768     -0.70838348651478
  H   -2.44755401532779     -3.78288540834161     -0.92680416702070
  H   -3.91666063817232     -3.02704513865103     -1.58994319454924
