28
Coordinates from ORCA-job 313optt
  C   -0.76106328693562     -0.07023713236022      0.17297457078004
  C   0.70948383074673     -0.10624466499987      0.27945479839937
  C   -1.41417551335471     -1.32595643683369     -0.09537679512466
  C   -0.68073905854874     -2.43680010058138     -0.51646324732529
  C   0.69536471819656     -2.38765909614651     -0.64119015213337
  C   1.40330223444045     -1.26027775271211     -0.23115128176637
  C   -1.56701727876294      1.05902178639386      0.33353177628052
  C   -2.83241780164902     -1.42674344822364      0.02226897391471
  C   -3.00875768146730      0.94121610119316      0.57227311777241
  C   -3.59242601785797     -0.37149425928760      0.38028799230401
  C   1.44595196765187      0.86369685836125      0.92417544124546
  C   2.83148362157073     -1.27453555464433     -0.19580492411706
  C   3.54761380512118     -0.28100841589327      0.37617087371960
  C   2.88488220246042      0.84796648161094      1.01177999259061
  S   -1.10558860464476      2.75529764005149      0.22486800200184
  O   -3.70061925427390      1.91549040285411      0.89835318924763
  H   -3.28426265155484     -2.39398250000065     -0.17408093676998
  H   -4.66620643359165     -0.44281532103092      0.50038474898377
  H   -1.21928816721713     -3.34554344000721     -0.76117845626744
  H   1.24507803225261     -3.25138470474872     -0.99863116463061
  H   0.95757272872204      1.70474490209913      1.39664304350936
  O   3.52890922675910      1.74790246271154      1.58206981201132
  H   3.33219182454845     -2.13803509840933     -0.62378709784417
  H   4.63016260247923     -0.30084270734842      0.41164905335885
  C   0.20738907844922      2.76760098416493     -1.01403219696301
  H   0.08579324410862      3.70192987751543     -1.56079411587358
  H   0.07772872169694      1.92881349608992     -1.69632186150969
  H   1.20359391065444      2.72327964018207     -0.57806315579423
