24
Coordinates from ORCA-job 315optt
  C   -1.61970956220782      0.58859648313253      0.00000602737178
  C   -1.73010078864212     -0.77915394727773      0.00000741331909
  C   -0.34802673343190      1.20187595781769     -0.00000336194884
  C   0.80703155670882      0.44132638417343     -0.00002291588964
  C   0.73172941937085     -0.98489171592529     -0.00001142339630
  C   -0.58292168492584     -1.65438702147609      0.00001559082011
  C   1.89012715659936     -1.73884581741967     -0.00002154601218
  C   3.14820713359670     -1.11059609166061     -0.00001355313512
  C   3.28833954000487      0.25609283857620     -0.00002334555832
  C   2.11900593949851      1.11241332841222     -0.00008417821760
  H   4.04291673276311     -1.72730295682275      0.00000641703886
  C   4.62327505886269      0.93339660861615      0.00000922121174
  O   2.23101719550292      2.35261205443836      0.00006413752833
  H   1.80089219273451     -2.81738397579081     -0.00000744686069
  C   -2.84698626161676      1.46230900763303      0.00000798703071
  H   -0.25381902152391      2.28134428818894     -0.00001549027552
  H   -2.70287079002423     -1.25914795168757      0.00000672727109
  O   -0.69690587975501     -2.89191235830972      0.00000511313304
  H   5.43443209449733      0.20365218731036      0.00006033750693
  H   4.72622373899867      1.58430573666022      0.87182409278472
  H   4.72629181030565      1.58425657163607     -0.87183435038431
  H   -3.75825957865666      0.86408602508504      0.00001525460706
  H   -2.86172450582943      2.11158755814423     -0.87875765349654
  H   -2.86171476283035      2.11159680654575      0.87876694555160
