30
Coordinates from ORCA-job 321optt
  C   2.11867924925485      0.82951472011601      1.69953362743138
  C   2.64913030706252     -0.44349221707281      1.59443568335868
  C   0.94521236991058      1.25674989516287      0.90832486527862
  C   0.28285925706446      0.18084570926940      0.16047997502866
  C   0.85750096534316     -1.11166977173444      0.11279182175404
  C   2.04729796141504     -1.41309182202331      0.81516318767156
  C   -0.95991021566986      0.43170366486021     -0.55966549626467
  C   -1.49958636054399     -0.69375596150109     -1.32926762352898
  C   -0.90112720325221     -1.93162698377610     -1.36360881299402
  C   0.27178929216814     -2.15321608004272     -0.64227147991631
  C   2.83193945834614      1.74093855932467      2.61696615302443
  O   0.59818927539126      2.43308267563450      0.86371910865455
  O   -1.59689134438474      1.48911490630883     -0.56990186386989
  C   -1.46129148045776     -3.06187052814086     -2.14589439070974
  H   2.46150358304496     -2.41086635049420      0.74803462895988
  H   0.73598217730241     -3.13024896367022     -0.66720074257452
  O   4.00030198510367      1.62477300213301      2.92681376426462
  O   2.06229348471591      2.70025775503348      3.14904941198193
  C   2.72540787546785      3.59179073696772      4.02400280676915
  H   3.55149073803809      4.08940306657731      3.51496175853546
  H   3.12362600570680      3.06440645092931      4.89230937346603
  H   1.97709872382289      4.31851333185756      4.32994404384467
  H   3.54902422112518     -0.66720203554438      2.15523347071524
  O   -1.00463833543026     -4.17741789476769     -2.18030198943274
  O   -2.56351606292361     -2.72538209786117     -2.84304949233102
  C   -3.13879598376354     -3.77526932593060     -3.60349219021179
  H   -2.42850566450417     -4.14914556769457     -4.34087736233358
  H   -4.00801195753179     -3.34688842294463     -4.09515363808226
  H   -3.43450915736595     -4.60095488298665     -2.95623439410260
  H   -2.41325316445603     -0.49485556798939     -1.87217420438679
