34
Coordinates from ORCA-job 324optt
  C   1.19221745916411      1.98236812635066      1.28129306505840
  C   2.07306855886908      0.97627054207680      0.98926620219570
  C   -0.10573251303816      2.11495690426807      0.64600433620856
  C   -0.43796857069187      1.06088772972882     -0.31411706294116
  C   0.49096857650308      0.01524006525379     -0.55861024721850
  C   1.75259089015221     -0.01588891506209      0.05891167359452
  C   -1.69918432653474      1.09459878140892     -1.04596956082755
  C   -1.91978942915709      0.01867380933834     -2.01389159489327
  C   -1.04616886333037     -1.01407148314657     -2.20337355062158
  C   0.14100447276557     -1.04789641621879     -1.46925211853946
  O   -0.83714459730790      3.06714302762429      0.94181226714071
  O   -2.58163341276073      1.94863335634128     -0.92275018619503
  N   3.34953533264075      1.03338607923910      1.61977234503280
  C   4.21971412654611      0.07071474457512      2.00106212163242
  O   5.23735084363451      0.29328415700128      2.62495635277697
  O   3.85801521276986     -1.16990792384573      1.62203552764030
  C   4.75670126036458     -2.19299337105759      2.02323015339880
  H   4.83601805069164     -2.23152214525380      3.10907291822259
  H   5.74790649224090     -2.02085092651630      1.60526902753529
  H   4.33744149338242     -3.11974579071384      1.64006057564645
  H   2.51005523829154     -0.72634161629303     -0.22101064936373
  H   2.56583508185800     -4.63445898788867     -4.03895084547668
  O   0.48205706077700     -3.15949518156337     -3.53928512699150
  C   2.22941756119218     -5.04935397096564     -3.08909541987433
  C   1.09283673757078     -3.09514161544588     -2.50071469337510
  O   2.02347474575043     -4.01955235475160     -2.13612022128107
  H   2.99384158717312     -5.69646689915965     -2.66709876777926
  N   1.00188058903722     -2.15277805595898     -1.53278793628218
  H   1.30945489694099     -5.60840262707190     -3.25810420018803
  H   -2.85304842181961      0.06953405703551     -2.56050699374697
  H   -1.26293942999401     -1.81243169780805     -2.89718422409205
  H   1.62416789779165     -2.28059976813123     -0.75049055894445
  H   1.44308304917438      2.74670522435664      2.00884809304972
  H   3.60101234935225      1.93412314225419      1.99470929949869
