30
Coordinates from ORCA-job 329optt
  C   -1.11037809034145      0.21339466426378      0.49737694781071
  C   -1.51151969662946     -0.99525916825169     -0.04249645241155
  C   0.21226869094731      0.66272236419654      0.45208413064860
  C   1.19512851947152     -0.10693105000463     -0.15084545174816
  C   0.85784640526900     -1.35349144855096     -0.74128930155852
  C   -0.54534688458840     -1.85516556454888     -0.72650339711488
  C   1.83265183998355     -2.11724463273482     -1.35415322620687
  C   3.16366922216844     -1.67688107162507     -1.37699810494227
  C   3.55713693771770     -0.49964983843969     -0.78083461423560
  C   2.58527761969844      0.38907831223147     -0.17631296057222
  H   3.91969374248788     -2.27579618115454     -1.87167914714112
  C   4.99707022853074     -0.13110368199729     -0.88074735714841
  O   2.88477446139479      1.50524893245593      0.27218379804567
  H   1.54533457648163     -3.05578996879892     -1.80772472949231
  H   -1.85416576362055      0.82962266991915      0.98443699775495
  H   0.49324192468250      1.61093840853286      0.88935582507885
  C   -2.91415390804585     -1.42429037584973      0.08364582575622
  O   -0.83340911817446     -2.91274254055177     -1.27740338365084
  O   5.62322457261441     -0.23331921420718     -1.90462373268060
  O   5.65572836950659      0.28338700287294      0.21929704407654
  C   5.09110823309481      0.19751811725161      1.51954413985567
  O   -3.36806242867149     -2.52105825523801     -0.10743058411186
  O   -3.72905165440033     -0.39898593594343      0.48478223372038
  C   -5.08418927600773     -0.76261092915498      0.66345862486394
  H   5.92400244889406      0.00605392344238      2.19471491161035
  H   4.37409567380704     -0.62114144674318      1.58809378788381
  H   4.59181258790174      1.12911209353137      1.77245750939745
  H   -5.51132785772729     -1.13985473280765     -0.26624811042497
  H   -5.60091912015408      0.14161646964852      0.97727853363257
  H   -5.18270225629107     -1.53862692174412      1.42360024330449
