26
Coordinates from ORCA-job 333optt
  C   -0.84353781678553      0.06172181918825     -0.15517783657460
  C   -0.68191569939943     -1.27596777229228     -0.40118786773554
  C   0.24768748183421      0.88425441404064      0.18556178753906
  C   1.52104405291674      0.35202788824854      0.27785240104762
  C   1.74189352922590     -1.03102257467631      0.03282014223217
  C   0.61096577050791     -1.91275495762002     -0.32351317516847
  C   3.01264029793892     -1.56937105448770      0.11798378003796
  C   4.11436049503622     -0.75663763578169      0.44189565380025
  C   3.95558637003279      0.59746741019050      0.70880634714935
  C   2.64869664505334      1.22851488522263      0.64682810241450
  S   5.33241832726929      1.57967947764630      1.19930527027556
  O   2.48031396903857      2.43356988050479      0.88082595146161
  H   -1.83285588308248      0.50176351946116     -0.22199394559638
  H   -1.51956052381724     -1.91120131397137     -0.66236913795300
  O   0.76515860162487     -3.12530931991183     -0.54382686727351
  S   5.75464077241701     -1.42414259998007      0.52340105094417
  H   0.11744296916377      1.93987622681871      0.38306124871658
  H   3.11176531003980     -2.62438221626371     -0.08398141884546
  C   5.49461210413155     -3.15419838648260      0.09448311034034
  H   4.85519330155579     -3.65772736675530      0.81732537958745
  H   6.48500236897321     -3.60689735495437      0.11864600121181
  H   5.07652580184806     -3.26310455017704     -0.90474858024956
  C   5.33103368313566      2.83983023606429     -0.09853568431204
  H   6.14521745438133      3.52748883955964      0.12873973969640
  H   4.37815586148521      3.36304461908890     -0.08388384845946
  H   5.50509475547439      2.37954788731993     -1.06985760428686
