24
Coordinates from ORCA-job 337optt
  C   1.68321608473425      2.22637251260358      0.75016561974309
  C   2.57272463249541      1.23387344300191      1.06591592413964
  C   0.34148688042558      1.98874031287067      0.20777314069428
  C   -0.02457226756465      0.59208301870395      0.01388972888994
  C   0.91647572560919     -0.41974755401263      0.34643833887312
  C   2.19112805679253     -0.09756658751315      0.86348953516134
  C   -1.32599471636139      0.20138100145523     -0.51142324881569
  C   -1.54723761804157     -1.24094574620974     -0.65754250583118
  C   -0.62318715148453     -2.19840803724995     -0.33285792064691
  C   0.61612578161817     -1.78926864457482      0.17305424131896
  H   1.94165013288254      3.27087930216369      0.89146700878627
  C   3.93937261326039      1.54557279147370      1.61956596762676
  O   -0.37223882930956      2.96707624702325     -0.04387385236089
  H   2.87697786335414     -0.90372738657066      1.10369250807590
  O   -2.23835201572209      0.97096864091370     -0.83591151457645
  H   -2.51996560266896     -1.51716489302688     -1.05153938209701
  C   -0.91280415681280     -3.66667500978297     -0.50992848887592
  H   1.36604704351363     -2.52698252170675      0.44026788474880
  H   4.08446977521046      2.62101231678685      1.72068650299505
  H   4.72444729272928      1.15507597281456      0.96745373879106
  H   4.07699815692625      1.08876732974318      2.60266956551670
  H   -1.91962490066265     -3.82272316065970     -0.89701175729611
  H   -0.82512303340306     -4.20071852579125      0.43929935998891
  H   -0.20538974752059     -4.12383482245573     -1.20618039484964
