38
Coordinates from ORCA-job 342optt
  C   -1.34499757286644      1.66228967156149      0.91250179998336
  C   -2.21693286037607      0.49721064991571      0.79126830780444
  C   0.01096053715654      1.56753879090031      0.76319146091422
  C   0.67421127952215      0.34136226831443      0.49471117495566
  C   -0.15651709170607     -0.80417615355245      0.38542212705202
  C   -1.51692666295823     -0.75333769619329      0.51358244024146
  H   0.29063318318671     -1.77669652350122      0.22923433542800
  O   -3.44761484232999      0.56350800735674      0.91465950180847
  C   2.09915324137962      0.26150682354477      0.33938549737236
  C   2.72002800413800     -0.88029697326524     -0.23971058630968
  C   2.95644893542440      1.32005425706616      0.73714595929481
  C   4.31793010181788      1.25977523118597      0.61079344114152
  C   4.97369887329365      0.09195368767417      0.04406962306846
  C   4.07211714711199     -0.97077511188259     -0.39477560620779
  H   2.08918205870185     -1.67850742465109     -0.59947004959257
  H   2.53458267817270      2.20800093799318      1.18767417706031
  O   6.20104065323391     -0.02446522955533     -0.07422547901890
  S   -2.05186092688583      3.22616800701939      1.32369997606937
  S   -2.45185573419821     -2.23044303329080      0.27382166673169
  S   5.30132929429942      2.57465388865576      1.25456187014067
  C   -3.25932751930265      3.43798658836224     -0.00592911755450
  C   -3.38324982631899     -2.32409156452118      1.82135239008547
  C   6.31369410349812      3.00159663174551     -0.18191000169605
  S   4.93210512321202     -2.32323922125933     -1.10989042252574
  C   3.57371241892175     -3.43587523256260     -1.49629884145207
  H   -3.73805302224478      4.40190824520472      0.16248017866482
  H   -3.99184336172245      2.63698501220681      0.03547454144417
  H   -2.75770454475245      3.44933839966642     -0.97229894385133
  H   -3.98789256006710     -3.22840878168307      1.76444085847305
  H   -4.01786762315483     -1.44762109496223      1.91700960399434
  H   -2.70183551175006     -2.39836002004103      2.66725474089034
  H   4.02532907256891     -4.32328262908122     -1.93616739125187
  H   2.88540826289745     -2.99452374609328     -2.21678341815001
  H   3.02874750241753     -3.72386926784298     -0.59734504251180
  H   6.94511337706005      3.83477091937597      0.12416737913781
  H   5.67996056605808      3.31536362155664     -1.00972968885321
  H   6.92258788586312      2.14870447038658     -0.46758307689508
  H   0.58354536069813      2.48329359424589      0.82205461411377
