24
Coordinates from ORCA-job 343optt
  C   1.52688967423513      1.01921792330297      1.77074693534889
  C   2.22130099125868     -0.15480476960642      1.78266864351522
  C   0.37756601585677      1.26483064373557      0.91204725376051
  C   0.05211667925641      0.16620289310084      0.00067608119412
  C   0.78487976846030     -1.04406234674829      0.03421469260165
  C   1.86660468177187     -1.23526674292439      0.94233422155959
  C   -1.05579674275500      0.31642969877512     -0.94708831885189
  C   -1.36143018319317     -0.82691845577700     -1.80340584087989
  C   -0.65247785758916     -1.99580208383712     -1.73067759505536
  C   0.39918807258074     -2.12076066963858     -0.83184151278309
  H   1.84176752400362      1.86088089945348      2.37823803209714
  C   3.46735117940622     -0.17624197365619      2.62446463563855
  O   -0.22283970195939      2.33707442522852      0.98745447520067
  O   -1.74488737599859      1.33184687101118     -1.07530737909218
  H   -2.18405441146211     -0.68775695613165     -2.49349482570258
  H   -0.90126123576513     -2.83294148498132     -2.37258248075868
  C   2.55011835194651     -2.51834531209913      1.09652525465667
  H   0.95708000215258     -3.04164862096677     -0.78833525840139
  O   4.57223946724498     -0.38059308749262      2.21778488798156
  O   3.27042987291808      0.14447926028897      3.92494509072347
  H   2.32321523828781      0.26513423408476      4.06693397018811
  O   2.77535440295446     -3.36519977070613      0.25858664994178
  O   2.93459208482117     -2.74134313553849      2.38445772513464
  H   3.49812350156715     -3.52569143887731      2.35993466198248
