20
Coordinates from ORCA-job 349optt
  C   -1.47432794020259      1.92998706606936      0.00001503097798
  C   -1.71090498058532      0.56398090632136      0.00001342362338
  C   -0.11312280145933      2.44773980300315      0.00002803210446
  C   0.94200476160194      1.44417817697054      0.00000409268340
  C   0.63208842110534      0.09298079281137     -0.00000416273418
  C   -0.67983011680700     -0.37024451537990      0.00000592681397
  H   -2.73824938272677      0.21147846513114      0.00001547759413
  H   -0.89311937618849     -1.43146924823500      0.00000148399713
  C   -2.54999014531020      2.91444561210437      0.00001118267372
  O   0.13417381830660      3.67745990374203     -0.00000178575699
  C   2.31478851317849      1.93583406262053     -0.00000822269194
  H   1.44340610452684     -0.62914179539803     -0.00001749532358
  C   -3.87074347871697      2.70500368474272     -0.00001635549150
  H   -2.18252590236068      3.93623393149410      0.00003505959116
  H   -4.30741425718776      1.71240171925642     -0.00004401601946
  H   -4.56232924774285      3.53817741521241     -0.00001451025261
  C   3.45171254262683      1.23170953383565     -0.00000352787350
  H   2.37150623830040      3.02021389978477     -0.00002055176073
  H   3.47053306574200      0.14745431523792      0.00001445030507
  H   4.41183416389956      1.73239627067506     -0.00001353245990
