24
Coordinates from ORCA-job 356optt
  C   2.17365079815444     -1.15399855825399      1.66286341274313
  C   3.03143724907121     -2.26967277743992      1.69584575735693
  C   2.24565733001147     -0.21948004109361      2.66689435221745
  C   3.92648130225266     -2.41861263060823      2.71048758466158
  C   4.02479691593031     -1.46500651691293      3.76636930868778
  C   3.14981903692215     -0.32255625067289      3.75319169395824
  H   1.46178412957500     -1.02019238482221      0.86136586600172
  Cl  1.13480005831667      1.11663423642220      2.49741644017434
  C   3.22592480097753      0.66289296928745      4.84168923566753
  C   4.96392267868860     -1.66236894425751      4.78371427865809
  C   5.07936315577629     -0.74464163632763      5.82816059802100
  C   4.23714447814669      0.39963308651895      5.87084162093009
  O   2.50022956187927      1.66104596080139      4.92018827194565
  C   4.36244825235722      1.31511809513506      6.92671927975564
  C   6.02776138691793     -0.91116351865299      6.88099955363922
  C   5.27948281562672      1.14615095920340      7.93500811623943
  C   6.10599933308213      0.00784855644426      7.88211023690646
  H   3.69860964794852      2.17051307697847      6.91537370311081
  H   5.37795135900573      1.85046878106754      8.74855456387803
  H   6.68318855615675     -1.77282630106407      6.87732788676152
  Cl  7.27823712988321     -0.21977507675558      9.16552110933447
  H   2.97307765018066     -3.00769213936186      0.90416980743861
  H   4.59088258860815     -3.27467887284133      2.73734181045341
  H   5.60346978453060     -2.53612007279398      4.75420551145870
