34
Coordinates from ORCA-job 358optt
  C   3.33056117736343     -0.39350609754972      2.81316524549414
  C   4.10528666297430     -1.53995198516298      2.50189891978647
  C   3.59685432249029      0.36207847659805      3.92597827319879
  C   4.65899255510684     -0.01698820923463      4.81399565316538
  C   5.45232191034960     -1.16843307308541      4.48528032350173
  C   5.13762469046886     -1.90776381839997      3.30593815186979
  H   2.53757269842264     -0.08599557130647      2.14200991576909
  H   3.87659367605631     -2.10977527869796      1.60919041910318
  C   2.77779883813186      1.57856961486313      4.15909157071023
  H   5.74235837076597     -2.77581740299921      3.06715227311412
  C   4.95486109443892      0.65717363523994      6.00829727321717
  C   5.99270764946081      0.27861729737333      6.83663751158457
  C   6.80818921148345     -0.85765519086452      6.49905797546499
  C   6.49450032175439     -1.55101012211233      5.32483427828790
  H   4.36867050748455      1.50539093561159      6.33799712530277
  H   7.08063302151804     -2.42617106519182      5.05972830516934
  C   6.23854132388870      1.07290691321421      8.07152121217505
  C   7.86741384313399     -1.23291205714791      7.35855705858750
  C   7.32127055122844      0.61357619191283      8.86749700822212
  C   8.08629089426648     -0.49267391876844      8.50402924357537
  O   5.52562536392397      2.06185938523800      8.34222179456124
  H   7.53804083625141      1.16067695761966      9.77661019750338
  H   8.48425889641177     -2.08787480019482      7.11199322239255
  H   8.90105721824412     -0.78782937705674      9.16038379185732
  C   1.38502793069290      1.50947392707095      4.10468802347596
  C   3.36862131061053      2.82405763808658      4.38162981921439
  C   2.59136878886291      3.96122789466339      4.53918846387001
  C   0.60506840960709      2.64674449524975      4.26247210582365
  C   1.20582309341597      3.87868449783048      4.48004207904096
  H   -0.47457177579861      2.56749872586747      4.22610942141974
  H   0.60010770422988      4.76648012731214      4.61145552192634
  H   0.91630278362629      0.54508737479788      3.95082777198818
  H   4.44758222644427      2.89356179727006      4.43124732493252
  H   3.07134389268947      4.91542208195348      4.71571272469386
