24
Coordinates from ORCA-job 359optt
  C   2.18440979642849     -1.09351690080378      1.74731421033650
  C   3.02236331800655     -2.22813089255355      1.72065179351344
  C   2.27126641394545     -0.18102356242679      2.75864787619258
  C   3.93334465039935     -2.41310204172880      2.71911314864591
  C   4.07035854119678     -1.49024765851881      3.80026668604577
  C   3.20518017927618     -0.35518958695637      3.79678411380278
  Cl  1.02688501869448     -0.88257673038795      0.44860752782834
  H   1.63553618392774      0.69430818756887      2.79563921575103
  C   3.26224905268041      0.64870498551366      4.85465947325425
  C   5.00637076575836     -1.67867118109687      4.82009227621278
  C   5.10270691238326     -0.74426160980571      5.85874156061163
  C   4.25556739865752      0.40280072740471      5.89496365429540
  O   2.51640664289199      1.64354651171620      4.86567356435469
  C   4.37342943797635      1.32492639688428      6.95135288867765
  C   6.04450115099048     -0.89236039821082      6.92074733730393
  C   5.28862294391923      1.15405860324378      7.95855867805506
  C   6.13473245318632      0.02114281339662      7.93205308392621
  H   3.70560233000798      2.17765219394360      6.93082902469253
  H   5.36706215672076      1.87290622882380      8.76457313886601
  H   6.69782377194238     -1.75851297407428      6.90824735675111
  H   6.86309747434578     -0.12354193007857      8.72260365611388
  H   2.93226384746082     -2.93801050161592      0.90832101299106
  H   4.57915841355828     -3.28420989498385      2.70086421300019
  H   5.65716114564492     -2.54518078525343      4.80704450877712
