21
Coordinates from ORCA-job 35optt
  C   1.63461086724478      2.23700288425602      0.73370619104929
  C   2.52279176371686      1.24316700294976      1.04688267837574
  C   0.30125959731104      1.97343728683782      0.19222703095547
  C   -0.04132401473783      0.56935563360497      0.00692578434458
  C   0.91145989878620     -0.44161223423609      0.34093558075187
  C   2.20031421961268     -0.10248631211475      0.86471511390614
  C   -1.35040147483886      0.19051404898278     -0.51766396452444
  C   -1.57592784842058     -1.24402552137445     -0.67035895405859
  C   -0.63985739769795     -2.18483240901773     -0.34449249881531
  C   0.60564000003676     -1.80421236524911      0.16248606185456
  H   1.88238884631030      3.28270118600727      0.87265061271712
  H   3.50099038193316      1.49761766608134      1.44552405283869
  O   -0.42409887422921      2.94188840310835     -0.06549757122480
  C   3.21069975566401     -1.15536413942039      1.22328712941936
  O   -2.25516761708803      0.97586226976969     -0.83181139533587
  H   -2.54686422083384     -1.52250208831511     -1.06352982013684
  H   -0.86034571748380     -3.23959994633973     -0.47785463999024
  H   1.33250590976993     -2.56254679163661      0.41712937148104
  H   4.12049560936069     -0.68926097701711      1.60254097105439
  H   3.48223769928566     -1.76997464873590      0.36061725318204
  H   2.83478261629800     -1.83480894814102      1.99318101215576
