42
Coordinates from ORCA-job 364optt
  C   -0.55247796874224      0.37107070421333      0.07190255119284
  C   -0.64129965714662     -1.00837040670883      0.05675381406665
  C   0.66402419833044      1.06023529444906      0.10756884905051
  C   1.82580338894583      0.28215572633134      0.12381545442986
  C   1.81295291050862     -1.10017519164384      0.09897200862578
  C   0.55694319091590     -1.83286007092479      0.06446058186224
  H   -1.47175483632376      0.94421793463160      0.00215516389824
  C   -1.97475237292937     -1.64602919017864      0.02967167798906
  C   0.71839340106265      2.52856627650718      0.12736559410748
  H   2.78430493079131      0.78393578700628      0.21209978103603
  C   3.09577523336191     -1.83446682696576      0.11650876255855
  O   0.50982839228822     -3.08498294525240      0.04348845278379
  C   -3.05485950900223     -1.07083736028669      0.70759914022800
  C   -2.21698440744416     -2.82988329314654     -0.67993614145925
  C   -4.32884812816009     -1.62233032352601      0.66668371442599
  C   -3.48378035010197     -3.39341852959160     -0.73239557504949
  C   -4.52014363275424     -2.77843722299628     -0.05905691706075
  H   -5.15946639921340     -1.17760891497011      1.19867177882712
  H   -2.89035862902282     -0.18015210840219      1.30104469868251
  H   -1.38914515486345     -3.30991359848945     -1.17948382354223
  H   -3.67289292474456     -4.30474056999397     -1.28456209773224
  C   3.24154246325682     -3.05688859733318      0.78616105673140
  C   4.22557158926403     -1.31512269119153     -0.52495228274656
  C   5.45691138086720     -1.95580776417328     -0.48295435206186
  C   4.46448172425770     -3.70978771597658      0.83856020245394
  C   5.55377844184023     -3.14631171708784      0.20507585337585
  H   4.57931833907151     -4.65037433919150      1.36128438928075
  H   2.37353782995748     -3.49402397253063      1.25590185930773
  H   4.13520323889251     -0.39504979198198     -1.08867475454419
  H   6.32634621278644     -1.55251907758082     -0.98516072899513
  C   -0.29954018841065      3.29322979699817      0.71438296763747
  C   1.79037984754248      3.23156861861690     -0.44024575408008
  C   1.85322871689739      4.61708646562291     -0.42078070841733
  C   -0.26112191145200      4.67959354071559      0.73019703176028
  C   0.82052805219949      5.32181699605776      0.16294895565610
  H   -1.04858105351825      5.26260278848716      1.18949378658758
  H   -1.12974209130445      2.78741986681769      1.19008930243388
  H   2.58174126243483      2.67873886305153     -0.92967049991595
  H   2.68169138930859      5.15239255907452     -0.86584318473103
  F   -5.75660689268197     -3.33181846220172     -0.09978382417219
  F   6.74782055839524     -3.78526395647983      0.25001530083089
  F   0.86931941463939      6.67468342022499      0.17943791468779
