26
Coordinates from ORCA-job 368optt
  C   2.28865338791294     -1.29569284203930      1.86932449455536
  C   3.16153127092857     -2.41214501735696      1.91607542919170
  C   2.37122403533684     -0.34116963802824      2.84892114617951
  C   4.06641134097427     -2.53241702860355      2.93495350241253
  C   4.16748047049025     -1.55908798391083      3.97355891839891
  C   3.28960669534565     -0.43421194524290      3.90813050141354
  H   1.72239680306600      0.52655918992407      2.84037396316087
  C   3.32185244496220      0.62163081417285      4.91069043005830
  C   5.09087897743456     -1.68179547192698      5.01569169578038
  C   5.16108552416576     -0.69698833492222      6.01004465801570
  C   4.30196754163384      0.44185042969427      5.98030364914258
  O   2.56804154728123      1.61120154445600      4.86243788348223
  C   4.39302212066429      1.41355090192527      6.99127147850804
  C   6.08641006518346     -0.78243536496287      7.09302301305542
  C   5.29406228349306      1.30292575257665      8.02186421078946
  C   6.15089985520611      0.17979512831513      8.06178012020872
  H   3.71601326388353      2.25644477342604      6.91848118505674
  H   5.35137708161243      2.06046559044492      8.79362919104645
  H   6.74889608952953     -1.64098809525128      7.13337732622503
  H   6.86777267143366      0.07971739286149      8.86990393603478
  N   3.03802914363997     -3.40884423639905      0.92028094858402
  H   4.73140197342835     -3.39118581441785      2.96329719299484
  H   5.75363632857661     -2.53884273538011      5.05676780616929
  H   1.56466611718346     -1.21771529207609      1.06585133529484
  H   2.76700260077474     -3.02643835712690      0.02553824393585
  H   3.87821036585852     -3.96008336015153      0.81928774030470
