24
Coordinates from ORCA-job 369optt
  C   2.11309870893552     -1.22627041165139      1.74633237927061
  C   3.00652413567493     -2.31358262612623      1.74039112462403
  C   2.23607881592251     -0.26155170030762      2.71793092533394
  C   3.96063795765652     -2.42693122296179      2.70644874254286
  C   4.09384234280344     -1.45070205008572      3.73603346107314
  C   3.23039225651098     -0.30765706234714      3.72191714386020
  H   1.32552130875314     -1.14460585075316      1.01141091821400
  Cl  1.02066749205133      0.99034226969400      2.66881894675235
  C   3.44414967801994      0.78127548484331      4.69267981717941
  C   5.05140918511362     -1.60926256895575      4.73973486809651
  C   5.13405288952869     -0.71061002010697      5.80505734307429
  C   4.30109990924921      0.45434861473477      5.84717382931521
  O   2.96999758568176      1.90402250843807      4.52851636505078
  C   4.39360638403287      1.27308517139840      6.99626455209348
  C   6.05275492725211     -0.93924222718495      6.87050311753012
  C   5.27293952187054      1.02068620306854      8.02223594603853
  C   6.12345988442427     -0.09754295553854      7.93931029990277
  Cl  3.34001720271217      2.64162495821271      7.25152030364694
  H   5.28955216046229      1.67407460415252      8.88237674485031
  H   6.69132479268351     -1.81341363335983      6.81366190235622
  H   6.82454277082629     -0.29138877052076      8.74299922406002
  H   2.91715761321648     -3.06925942655967      0.96847115476850
  H   4.63623004331130     -3.27460783083237      2.71781446621742
  H   5.70705243330650     -2.47131145725043      4.71874642414820
