27
Coordinates from ORCA-job 370optt
  C   1.00355378695512     -0.56130162395505      1.81901590353031
  C   1.01660621106484     -0.63442605576886      0.40815154313675
  C   -0.00914477683073      0.07332236056055      2.47563593937098
  C   -1.08530287191359      0.68522937860320      1.76602513919670
  C   -1.06464858968903      0.60297235760706      0.33406573497402
  C   0.00023416261138     -0.06644691702313     -0.32941215314750
  H   1.83804454489016     -1.13953536120703     -0.08201014758562
  C   -0.01856481648953     -0.18964113203097     -1.84415448567503
  H   1.81252892968361     -1.01545094864671      2.38100672799539
  H   -0.01395214608066      0.12733478697932      3.55900792749841
  C   -2.11974670638598      1.34205454155794      2.43955960220195
  C   -2.15383588665312      1.22530409999371     -0.34407795212044
  C   -3.20877274205270      1.96680372413008      1.77749230451381
  C   -3.15370674800711      1.86063774179231      0.32416358310352
  O   -4.15182097515857      2.56753214725759      2.35063805166997
  H   -2.19702790714337      1.19682724343258     -1.42716451717880
  H   -3.96868557126622      2.32719915485726     -0.21972374115587
  H   -2.09926877208471      1.38643945639164      3.52365582910030
  C   1.34705641005729     -0.46902796923629     -2.46726291962464
  H   2.09358950087005      0.25212432702517     -2.13179387518601
  H   1.27719380223854     -0.41594628500968     -3.55615532448473
  H   1.70296414927583     -1.46927247409730     -2.21137377095225
  C   -1.01124224314061     -1.27400119660833     -2.27974162733653
  H   -0.36240233738717      0.76554106674113     -2.24957524363514
  H   -1.08631292665036     -1.32323898458556     -3.36969360633150
  H   -2.00296092805835     -1.09074005587522     -1.86751841986928
  H   -0.67138455265496     -2.24637338288539     -1.91478050200875
