24
Coordinates from ORCA-job 374optt
  C   -1.96395703413582      1.74886141165599      0.02374152304406
  C   -2.89030421106859      1.50751201144938      1.03915326403554
  C   -1.37181125103026      0.66870165621019     -0.72486587446470
  C   -1.83713075571814     -0.63921391654233     -0.34954407178448
  C   -2.75133252322060     -0.84562364631067      0.65599972605020
  C   -3.29412975233498      0.22209189693886      1.37546841469517
  O   -0.51266659255623      0.85291798402607     -1.62582337549277
  H   -3.06032266754734     -1.85814348859148      0.89548602366227
  C   -1.43043562008799      3.12976107783940     -0.18229333036185
  H   -4.01923898930128      0.07665358701194      2.16346168376772
  H   -1.41413451856735     -1.47333333285846     -0.89758439417638
  O   -0.85548485078661      3.75005250380164      0.67580761189375
  O   -1.61289209534014      3.72241729037038     -1.37736404157302
  C   -2.40107087743157      3.07343138195780     -2.36652921939657
  H   -2.50461646611630      3.79426572477533     -3.17604879444217
  H   -3.38760839756599      2.82838489458350     -1.96898319135093
  H   -1.89592018233905      2.17348726165069     -2.71638988672471
  C   -3.53278832715696      2.62766952918072      1.77601036867872
  O   -3.85749332516553      2.61693387300784      2.93641834611583
  O   -3.77385319359593      3.68818634464532      0.97838184664611
  C   -4.19150831287451      4.86691027905513      1.64355196515566
  H   -5.13747464040974      4.70598544686606      2.16137700254488
  H   -4.30006691943885      5.62396439370083      0.87132886137480
  H   -3.43685849621009      5.17376583557576      2.36812954210286
