19
Coordinates from ORCA-job 377optt
  C   1.29605933304833     -0.06463213652745      1.82247041087800
  C   1.23735301206734     -0.34327301655453      0.44366845354253
  C   0.20540568986628      0.45803850820901      2.46348034642122
  C   -1.01508393397402      0.73980559204069      1.78321172144982
  C   -1.05034048782822      0.44884194308321      0.38557546343189
  C   0.08816278080083     -0.09022386918825     -0.25346066639251
  O   2.37829923134210     -0.87211277989946     -0.14170434634280
  H   0.03828240373722     -0.30403857876627     -1.31935775624117
  H   2.21619838075178     -0.27256980991054      2.35512335648573
  H   0.26045465204449      0.66933297901278      3.52596326596767
  C   -2.13745237761459      1.27570956076367      2.43099957879838
  C   -2.25977917359615      0.72382277090442     -0.30579620000469
  C   -3.35536760070943      1.55940465614310      1.76127312283636
  C   -3.34109607833544      1.24351457361203      0.33576863595862
  O   -4.38348024957591      2.04045689081564      2.30567777195269
  H   -2.30687440870481      0.50855407929566     -1.37050975911007
  H   -4.25945856015640      1.44855801071683     -0.20472468098250
  H   -2.08588736283478      1.48829986179281      3.49387303793366
  H   2.19468474967142     -1.00554923554334     -1.07532175658282
