20
Coordinates from ORCA-job 384optt
  C   1.25048180061697     -0.13058756178758      1.85853569037436
  C   1.21205245848677     -0.42190550052695      0.47613083321986
  C   0.17334608230272      0.42926851171758      2.49009143901175
  C   -1.03669556643380      0.73066747015610      1.80074465756963
  C   -1.06944720304539      0.41735928877085      0.40816180738148
  C   0.06317720622736     -0.14463532393573     -0.21914538366801
  N   2.34463104837650     -1.04290586137461     -0.13434527016861
  H   0.01190686039710     -0.35950074182881     -1.28427950892947
  H   2.15087003293224     -0.36493387347579      2.41807133120018
  H   0.22847034909540      0.64993197112086      3.55089633116384
  C   -2.14857053299757      1.30426005390987      2.43370133202180
  C   -2.26907501789218      0.71004513415556     -0.29407500125536
  C   -3.35452682199368      1.60839597070100      1.75178934410281
  C   -3.34084403161388      1.26712265398215      0.33205943712919
  O   -4.37222842700934      2.12692530994387      2.28211928864902
  H   -2.31534461263380      0.47786819072125     -1.35531560094080
  H   -4.25110131271386      1.48539604076205     -0.21705458790340
  H   -2.09778033688364      1.53303283938903      3.49334620242055
  H   2.28734855880229     -0.98710148328695     -1.14263168430052
  H   3.20688946597980     -0.59941308911378      0.15630934292165
