32
Coordinates from ORCA-job 391optt
  C   1.89312318126753     -0.86267918353637      1.79058069252017
  C   2.83021363342742     -1.90281901097979      1.55501512712781
  C   2.05071167496814     -0.03383894942022      2.87021245882106
  C   3.86920831955536     -2.08186391779927      2.43551202682349
  C   4.05700394113162     -1.24553891945568      3.57031751407730
  C   3.11882971621888     -0.19459855026441      3.76847155893658
  H   1.06662089058711     -0.72828199802580      1.10195409077695
  H   1.35938473848224      0.77609008802225      3.06859408878475
  C   2.64541225652997     -2.75450341564988      0.36957099569136
  C   3.25812428867287      0.72846280195916      4.88728119684094
  C   5.12055355534101     -1.45487724291338      4.46384636353055
  C   5.30594854690285     -0.60609893638205      5.55761161780771
  C   4.41336821150936      0.50118800716990      5.75552244081116
  O   2.45623930425876      1.65844841273221      5.07828893865322
  C   4.63866751235782      1.42872827561588      6.78040867713277
  C   6.38671172886535     -0.74870525741015      6.50921289381530
  C   5.72109274600511      1.32338075332392      7.61983194368049
  C   6.58281308489773      0.22685707765329      7.46572147309539
  H   3.92709883936838      2.24095956476895      6.86541187551579
  H   5.90351384824093      2.05694861734131      8.39465629679898
  C   7.30014055930511     -1.89533010436164      6.58004148459123
  H   7.42251475123726      0.11493839553513      8.14511781651541
  C   3.55912356859207     -3.52318786681802     -0.21738458403891
  H   1.64972008136858     -2.71907382131993     -0.06686798397783
  H   4.57852210232359     -3.57695853172251      0.14473567417332
  H   3.31201749869972     -4.11736884025995     -1.08754535569754
  H   4.56822416676474     -2.89823993831570      2.28643438176705
  H   5.82353969551356     -2.24257357898039      4.24600066446538
  C   7.12382804702764     -3.16303055349236      6.20255023669658
  H   8.23580352214543     -1.66655128119879      7.08732195354820
  H   6.21303284660817     -3.51531514204599      5.74139101061311
  H   7.89830314182544     -3.89497695376968      6.39608243010200
