32
Coordinates from ORCA-job 393optt
  C   2.32609786668647     -0.95434385258454      2.08967939103810
  C   3.15859285122873     -2.09720103134278      2.11165670228760
  C   2.42562246421352     -0.02884362106783      3.09342765981844
  C   4.05524941920624     -2.26996656352365      3.13197789150943
  C   4.19105813028373     -1.33347387976717      4.19422948508972
  C   3.33976174560896     -0.18767692985712      4.15054770736913
  O   1.39869807808449     -0.71418501200254      1.09073854315643
  H   1.79651781404825      0.85246462738638      3.09374228836956
  C   3.39110164220491      0.83742848036080      5.18575827199503
  C   5.10872293243278     -1.51351414508552      5.23610135172412
  C   5.19293286101400     -0.55724991378000      6.25515696235794
  C   4.35843975239547      0.60170595700114      6.25049462652485
  O   2.65880457867798      1.84511752623702      5.16202123518306
  C   4.45974968996390      1.54709440593727      7.28714520040846
  C   6.10359191743508     -0.68332934086936      7.34096438547386
  C   5.34793513091297      1.38668483628262      8.31627647260669
  C   6.18651261772180      0.24826292026019      8.34107581901162
  H   3.81028616168775      2.41274267931200      7.25065666059735
  O   5.37147706160732      2.36366278985225      9.29653644389159
  H   6.75187490484845     -1.55277571246997      7.36999908400306
  H   6.89770493701105      0.09889805161446      9.14261707132907
  H   3.09898567901267     -2.84374088895942      1.33086427536624
  H   4.68901571530053     -3.15051078697642      3.13856742679563
  H   5.74901020207311     -2.38787629082433      5.25414422383891
  C   1.29788948013975     -1.66029788530922      0.06749938251312
  H   0.52711923458153     -1.30202564840513     -0.61336265096292
  H   1.00542022627677     -2.64545442095771      0.44930255557566
  H   2.23891212304970     -1.76677481318675     -0.48474653632031
  C   6.32504836925654      2.23378178319467     10.30958185809302
  H   6.17046348093224      1.32545131563386     10.90361991433073
  H   6.21188276940634      3.10198332184445     10.95728254675218
  H   7.34543016269678      2.21786204205234      9.90912375027241
