27
Coordinates from ORCA-job 397optt
  C   1.37658147554813      0.17789724496471      1.94138511737011
  C   1.41738957289095      0.14910452415470      0.53190927993306
  C   0.19703737743913      0.40699963458138      2.59326604256723
  C   -1.02853049153807      0.62222862570341      1.89355822996651
  C   -0.98247299293049      0.58772059488469      0.45926036306003
  C   0.25402995320608      0.35154445376309     -0.17466194596764
  H   2.35079736777335     -0.02847374135109      0.01263799868649
  H   0.30070475769326      0.32564211059449     -1.25692209177952
  H   2.28610319291356      0.01897816204822      2.51049365357545
  H   0.17032581446098      0.43088159476360      3.67761742394752
  C   -2.22434865621653      0.85921369228451      2.57609056143283
  C   -2.21356161587837      0.80777550231649     -0.25226374686500
  C   -3.45138707762850      1.08178555960423      1.90514080425059
  C   -3.35776965440502      1.04107518279766      0.44752646017932
  O   -4.55353504209823      1.30146169445237      2.46679530411737
  C   -2.22107979202978      0.73244633789095     -1.77097214744815
  H   -4.29699619411716      1.21705510923768     -0.06467327694756
  H   -2.22604501216728      0.87884321922190      3.66077284714012
  C   -2.16567126355873     -0.72795172472188     -2.23613374135451
  H   -2.09357912802470     -0.79222428040476     -3.32574135744005
  H   -3.07667018281718     -1.24222711459980     -1.92120971930929
  H   -1.31848344511023     -1.25488281167299     -1.79751394433675
  C   -3.41133032565900      1.42860813178968     -2.42532210180773
  H   -1.32096536741415      1.23764992051344     -2.13414713182685
  H   -4.34412095237212      0.90591344587929     -2.20605115985022
  H   -3.28605819254012      1.44005999235126     -3.51083804137867
  H   -3.51280412541967      2.45610493895274     -2.07415367991467
