32
Coordinates from ORCA-job 400optt
  C   2.13786114069659     -1.34679284890183      1.52116237356875
  C   2.82662387833152     -2.57233817620190      1.67482903088226
  C   2.33408701009595     -0.35670915113137      2.45415117368700
  C   3.65715250770705     -2.77277218401757      2.75081961527716
  C   3.87578758640450     -1.76179006465762      3.73117590270188
  C   3.18734926193513     -0.52274417518636      3.55122074307640
  H   1.47383282843278     -1.18375938785142      0.68506153338572
  H   1.82930815518957      0.59731288342720      2.36472631440112
  C   3.35588071729977      0.58226311769332      4.49017862929349
  C   4.73260901552353     -1.96219308240243      4.81743243728201
  C   4.92294242759756     -0.93019087902167      5.74695246950797
  C   4.26065431839040      0.32526336401801      5.60715723321901
  O   2.76877054399557      1.66908028035336      4.34659570761883
  C   4.47289103747097      1.33957917091488      6.55726300041799
  C   5.78470902037279     -1.08564402259839      6.87402115114288
  C   5.30909978255321      1.15954013084479      7.63077063458034
  C   5.97123308956881     -0.08043553915551      7.78063035893469
  H   3.94318475897752      2.27184460002055      6.40176518871527
  H   5.46167198990987      1.95009417413032      8.35494629739252
  H   6.29669539668170     -2.03411052522156      6.99833066975286
  H   6.63421507535834     -0.23623885653076      8.62502968723353
  O   2.72677811983511     -3.60939560064547      0.78035260520933
  O   4.30324203835813     -3.98482075904769      2.88444957664058
  H   5.22677019135517     -2.91500525681181      4.95120105940608
  C   1.85810771904025     -3.44185092228513     -0.30675856421419
  H   1.90645875195165     -4.36476875906346     -0.88227275613945
  H   2.16194698079563     -2.60475277293026     -0.94362398968169
  H   0.82718784643839     -3.27722843860788      0.02223834846385
  C   5.55555835792638     -3.99813659917269      2.23094028908609
  H   6.02326675433500     -4.95892030152295      2.44734884252296
  H   6.19263689920460     -3.18946035408851      2.60267602303109
  H   5.42622679826636     -3.89169906434801      1.14923841360344
