40
Coordinates from ORCA-job 407optt
  C   1.94280318444922     -1.31257904871977      1.90764080676087
  C   2.89925839894242     -2.34708962765209      1.90385088006845
  C   2.00749559062046     -0.29511700455658      2.84696555726609
  C   3.91714598600149     -2.35699295280804      2.80440267561667
  C   4.01166250143339     -1.35608666230843      3.81931149029432
  C   3.01390310044284     -0.32365726421648      3.87448022138923
  C   2.99069211077071      0.57385822239473      5.03523279038171
  C   5.05083376344522     -1.43403530325329      4.75234426526803
  C   5.13186804357660     -0.52047948341303      5.80392276539790
  C   4.12328388528353      0.46396315871411      5.95446957471529
  O   2.08008986709472      1.38947718327282      5.27250595695368
  C   4.21261087468444      1.36604741484392      7.02947753689441
  C   6.18526308426076     -0.56261228669767      6.76884032246281
  C   5.24053874847323      1.32379817281878      7.93242463805838
  C   6.25019869062402      0.32988985034472      7.80799763764747
  H   3.43518701620718      2.11635714247086      7.10509647130937
  H   5.31491539611156      2.06548961326637      8.71726548373419
  H   6.93444209326713     -1.33496902324967      6.65120174971569
  N   7.31061853853329      0.33275706017008      8.75862634839097
  H   2.83194088230801     -3.12417673637368      1.14979008602934
  H   4.66754624043090     -3.13919174713020      2.78643537202143
  H   5.78374151296399     -2.22783298784978      4.66324622973894
  N   1.07943757058307      0.75250055441965      2.78543422252056
  H   1.19099446220322     -1.29376397398932      1.13284515255068
  C   1.59002030403084      2.10574368627048      2.70107174410576
  C   -0.10160149206427      0.57642082278213      1.98754901247185
  H   -0.56805878126791     -0.38441841916228      2.20482134852589
  H   0.08927299086470      0.63367084875116      0.90086562567586
  H   -0.80808838921495      1.37052957815329      2.23968259862630
  H   2.58923477393165      2.16427444734836      3.11542458229768
  H   0.95424809594406      2.78770181910784      3.26823233153282
  H   1.62230788920624      2.42969654917749      1.64714795916329
  C   8.41078362562443     -0.56012010289025      8.48532244879406
  C   6.87808951111314      0.21316071424847     10.13964391350554
  H   8.79436307442786     -0.38263775305973      7.48130407848064
  H   8.13072775985075     -1.62340459464732      8.56637095422801
  H   9.20875731500145     -0.36532594922539      9.20425282237582
  H   6.07184927636206      0.90991223665079     10.35104024158137
  H   7.71513564246095      0.43869765529888     10.80389598282291
  H   6.51815686101705     -0.80348580930197     10.36699612062508
