24
Coordinates from ORCA-job 412optt
  C   2.15513104794009     -1.10659427687612      1.69626851390190
  C   3.01407351896173     -2.21322192707000      1.74156693232324
  C   2.26931341016380     -0.19638837377560      2.71677318442077
  C   3.92756189043645     -2.40937716779817      2.71981842330090
  C   4.04541093840618     -1.46080766910492      3.78408710700101
  C   3.17837460175110     -0.31198851886808      3.78548267700888
  H   1.43842799927926     -0.97132169080167      0.90098790285344
  F   1.44503063243691      0.85591909689550      2.65313834823628
  C   3.24647052600027      0.68019451742193      4.85992418405327
  C   4.98094376899965     -1.65361436463029      4.79629121364111
  C   5.09274373219137     -0.73061549102010      5.84722790453717
  C   4.25281124063646      0.41340036400443      5.89686114615111
  O   2.52067111893522      1.68024410976406      4.91986329124531
  C   4.37413123283258      1.32296744901880      6.95957169076738
  C   6.03789637660897     -0.89610731975850      6.89970327678017
  C   5.29336423952687      1.13875257405142      7.96407157010275
  C   6.13476905101503      0.00698339314846      7.92257092199731
  H   3.70792818994590      2.17685528258036      6.95036652897628
  H   5.37464758069194      1.84874063305518      8.77755473697577
  H   6.68787493682613     -1.76437588896393      6.87437334602938
  H   6.86550498371216     -0.14909255598499      8.70874640392267
  F   2.90329790885154     -3.12105521970122      0.74041746316914
  H   4.56529230282141     -3.28314890095976      2.69839958412577
  H   5.62444877102890     -2.52482805462682      4.77231364847886
