18
Coordinates from ORCA-job 41optt
  C   -2.03503975341960      0.29889420740179      0.15518632619111
  C   -2.02837321648572     -1.06714295664366      0.21151928083009
  C   -0.81057978581179      1.05435612292522     -0.00039525822935
  C   0.41419933280402      0.27616325346346     -0.06077459754723
  C   0.40119882027709     -1.08443600400278      0.01318409979359
  C   -0.81528734265468     -1.84754178274775      0.14927132391979
  C   -3.33266261784949      1.03128253844450      0.27463312734728
  H   -2.95021404304245     -1.62608092064019      0.34121389748201
  O   -0.81171889209106      2.30912627299346     -0.11633515297314
  C   1.73920845456268      0.97132739219675     -0.22612174361286
  H   1.33862808198043     -1.62436125554950     -0.04012040265460
  O   -0.82985006584629     -3.09622444164490      0.20799264440916
  O   -3.55736415997018      1.95248333224102      0.99780324259659
  O   -4.33142567966552      0.53416215468199     -0.50972434912949
  H   -3.96579816761924     -0.15722390567554     -1.07348727189425
  O   2.78625227706340      0.37223172073575     -0.27205497029354
  O   1.67689630267778      2.29094332345878     -0.31997519792239
  H   0.69604045509068      2.54882094836157     -0.25777499831277
