24
Coordinates from ORCA-job 425optt
  C   2.16918383430297     -1.09851246643716      1.72702066529049
  C   3.00905773224659     -2.23046688062166      1.70323205747350
  C   2.25528766777354     -0.18249297963657      2.73573020917825
  C   3.92159588901121     -2.41111507240966      2.70191077306961
  C   4.05596855723458     -1.48556095297717      3.77921562009230
  C   3.19041063265700     -0.35329484143519      3.77259444814367
  Cl  1.01004782623938     -0.89346762505922      0.43071148167891
  H   1.61789366931455      0.69158879660666      2.77069567498512
  C   3.24670672843693      0.65403089465098      4.82903861733778
  C   4.99368444554087     -1.67291760494379      4.80169070561993
  C   5.08585814407237     -0.73925553956321      5.83690475741416
  C   4.23802980803364      0.40890509871525      5.87046078114353
  O   2.50230312620309      1.64805660524269      4.83766156268207
  C   4.35260061102680      1.33012332000010      6.92469233292968
  C   6.02587851618749     -0.89236061720156      6.90118145206917
  C   5.26027828526779      1.16807849540706      7.94034289308105
  C   6.09205783374801      0.03080357275246      7.89797192121313
  H   3.68652121038739      2.18404619821345      6.90339615657717
  H   5.35006967650071      1.87520793277503      8.75247732071449
  H   6.68566265531262     -1.75074651496842      6.90856853837860
  Cl  7.25409901730107     -0.18615908866248      9.19227520537508
  H   2.91989226873762     -2.94293036896718      0.89318757078333
  H   4.56895630594264     -3.28088220495459      2.68569591191984
  H   5.64410555852110     -2.53912815652583      4.78970334284904
