24
Coordinates from ORCA-job 428optt
  C   2.11544580408449     -1.01064682268915      1.74074473717254
  C   2.95800358960843     -2.13979183756424      1.71580927083528
  C   2.24198778977291     -0.12607536883259      2.77911292911915
  C   3.88295129400259     -2.36356113015138      2.69853969111545
  C   4.04258173848706     -1.45520504562011      3.79956279212961
  C   3.17772495300967     -0.31321964555998      3.80413392712754
  H   1.39611805876857     -0.87208698805044      0.94681000339477
  H   1.61744672569256      0.75627691030517      2.84203746956848
  C   3.24343453088769      0.68578125589011      4.86788484979540
  C   4.97567385008124     -1.64736473532826      4.81508956366751
  C   5.07457231812041     -0.71111544279761      5.85877167183753
  C   4.23783444347973      0.43709502973899      5.90631470173625
  O   2.50149398928137      1.68153104668286      4.88454049869574
  C   4.36346728484212      1.35519078467892      6.96408430567996
  C   6.01936346898688     -0.87264757799191      6.91336513672341
  C   5.28285711245673      1.17300502801426      7.96588156378607
  C   6.12026889248051      0.03584722729703      7.92969092757410
  H   3.70083631640552      2.21189239626850      6.95015331755080
  H   5.37001930585114      1.88761643070704      8.77468694147784
  H   6.66646078505118     -1.74285354908717      6.89294091495177
  H   6.85120997101330     -0.11793920422239      8.71588164549927
  Cl  2.77296637526894     -3.24057284702975      0.38082611137616
  Cl  4.89593933971325     -3.77158030340679      2.62921523514386
  H   5.62745206265360     -2.50805561125115      4.81026179404146
