30
Coordinates from ORCA-job 42optt
  C   -1.74515609068844     -0.71261206637866     -0.95349701967386
  C   -2.13243063887470     -1.73692830680711     -0.13954809341418
  C   -0.54890906134977      0.07320509316421     -0.76887317507086
  C   0.27350300017231     -0.28568907807705      0.37668831530894
  C   -0.11376497960893     -1.31001245158802      1.19063188767204
  C   -1.31007600272279     -2.09575020864524      1.00607818127116
  H   -2.35224886515167     -0.43740433093123     -1.81165124563140
  C   -3.40976590463468     -2.49863057251507     -0.41622791452574
  O   -0.24931189156160      1.00784732108302     -1.55738244196417
  C   1.55089306724182      0.47594501869597      0.65330135729915
  H   0.49337261620524     -1.58527603707569      2.04873654221251
  O   -1.60954014992082     -3.03056021014959      1.79443892779417
  C   -4.42433812524232     -2.33779410279715      0.71990574116549
  H   -4.01543787952784     -2.75776683197630      1.63851487743240
  H   -5.35801691032163     -2.85327113739724      0.47609065912410
  H   -4.64798386494874     -1.28285951587337      0.88959154574332
  C   -3.14391163378854     -3.98120477353798     -0.69341327004664
  H   -3.84559790430805     -2.06006148780091     -1.32031276635180
  H   -4.07585311460745     -4.49758673788191     -0.94193940066967
  H   -2.70344069188270     -4.44514388606387      0.18852973838174
  H   -2.45217240879880     -4.09859427452732     -1.52973040454850
  C   1.28513594227494      1.95851577696639      0.93060276293896
  H   0.84464688685915      2.42254246536622      0.04871637940844
  H   2.21711905357831      2.47482641642130      1.17912142170239
  H   0.59344307323662      2.07588479233865      1.76696111630886
  C   2.56535538807003      0.31512979690546     -0.48293284361678
  H   1.98678618528763      0.03730356742089      1.55732172279426
  H   3.49906971096479      0.83057155274341     -0.23918071151900
  H   2.15638256827746      0.73515706003098     -1.40148562226754
  H   2.78895862577121     -0.73980285111270     -0.65268626725779
