34
Coordinates from ORCA-job 431optt
  C   3.10962356217558     -0.35718171191550      2.96748880606225
  C   3.90516592904205     -1.47329602387347      2.55926589733242
  C   3.47274526963127      0.31482970965256      4.10731381793250
  C   4.59692645157469     -0.06144637588140      4.88197574706247
  C   5.38918443283880     -1.17929977389225      4.46404996002511
  C   4.99445819181329     -1.86166629748264      3.27291497420339
  C   1.92897982179307      0.04269051484105      2.17721511934802
  H   3.64870917628725     -1.99574630134532      1.64521049686648
  H   2.87428849905901      1.14802757802247      4.46094384783661
  H   5.59477542060692     -2.69992105913518      2.93602027130913
  C   4.96480450072399      0.62042703114102      6.05088792120878
  C   6.06330843533031      0.25313224632971      6.79793069365604
  C   6.87008581215848     -0.86822675714690      6.38340694175171
  C   6.49584221991359     -1.55157438161937      5.21682197332541
  H   4.38713362905162      1.46971996575623      6.39984686810197
  H   7.09181490957555     -2.39938610066410      4.89196737436111
  C   6.38722336113872      1.03621779297304      8.02187922392514
  C   7.99349682816786     -1.23246326726226      7.15807428502113
  C   7.53680526874955      0.58853621396288      8.72757108130332
  C   8.28815093092113     -0.49931045240453      8.29333939132603
  O   5.67632711191274      2.00378525580401      8.36239972575279
  H   7.81208667596606      1.12855723119849      9.62492441172110
  H   8.60584537060377     -2.07266644085821      6.85588531184348
  H   9.15589688678328     -0.78777966273514      8.88101097954767
  C   1.54997624714135      1.38488011828558      2.06419915902164
  C   1.14811466260406     -0.90875808507285      1.51204373908780
  C   0.03674344126336     -0.53694051248269      0.77048897081399
  C   0.43596370137966      1.75766517977111      1.32839562968969
  C   -0.32834111811683      0.79947132157396      0.67397808785691
  H   -0.55308274610595     -1.29698695751171      0.27263701713904
  H   -1.19582498068355      1.09080407741439      0.09572472023125
  H   1.40497156354125     -1.95690595428070      1.60046861779703
  H   2.15473875632934      2.14363910814493      2.54450890969464
  H   0.16999177682853      2.80504277069276      1.25501002784378
