28
Coordinates from ORCA-job 432optt
  C   2.58440987220899     -1.35943633392513      1.86797692981061
  C   3.50586004720029     -2.43381482595721      1.97382602942372
  C   2.55283677438071     -0.39551868405500      2.83465268159373
  C   4.35978272232328     -2.50329374569613      3.03941591319928
  C   4.35892742037332     -1.51061286799306      4.07798150382350
  C   3.42235509691341     -0.44538975236001      3.94437708589209
  H   1.86420942881643      0.43849326581589      2.78850453410282
  C   3.33986203059253      0.61189705358119      4.94453381341898
  C   5.23224031343535     -1.58558609808017      5.16567065260683
  C   5.19021803322743     -0.59023251419829      6.15084272614581
  C   4.27129766767738      0.49622899641587      6.06161365386650
  O   2.52869250624885      1.55249248355901      4.85189608662462
  C   4.25481451688722      1.48117731006748      7.06685776238963
  C   6.05955097496623     -0.61755094219772      7.28246158639586
  C   5.10438774963375      1.42787444752919      8.14263727904617
  C   6.01955789381904      0.35360881944141      8.24213770583440
  H   3.53740694732012      2.28451673399967      6.94972048496199
  H   5.07960338307627      2.19375519470011      8.90802065802830
  H   6.76420355403098     -1.43851236836583      7.36526114567899
  H   6.69576363479395      0.30100815468531      9.08868866618347
  H   3.52038161180939     -3.19064845133085      1.20160550196815
  O   5.27815023309373     -3.50756498670029      3.21289630821410
  H   5.93450239295345     -2.40240951069946      5.24809493580125
  H   1.91564106547567     -1.31917075593104      1.01727164028311
  C   5.31813973564589     -4.51660701052234      2.24635513429011
  H   4.36045107192387     -5.04462628458912      2.17648747137202
  H   6.09192576607491     -5.21621420077584      2.55792538106993
  H   5.56911755509738     -4.11731312641758      1.25726672797382
