22
Coordinates from ORCA-job 434optt
  C   -1.32584797215205      2.40224315387979     -0.47996958344308
  C   -0.54696782984570      3.27531358207584      0.27033164153529
  C   -2.52455897656619      1.78524063926453      0.04924706219882
  C   -2.78794256014016      2.06844374240991      1.42971021314160
  C   -1.96408597380725      2.88054915882951      2.17265526684696
  C   -0.83312011488082      3.49368824614955      1.62431773972944
  O   -3.26055313301673      1.09162100683270     -0.69029267879814
  H   -0.14880696754518      4.06672668116222      2.23558695748968
  H   -2.18647862904840      3.04552770525678      3.22145498541062
  N   -1.07853686672819      2.15336244510167     -1.85289998260861
  H   -3.66651688425000      1.61100832738518      1.86717391094409
  C   -0.00701700287819      1.46015247882127     -2.34667683607352
  O   0.11960204443679      1.12499390527299     -3.49554127004816
  O   0.97336931193009      1.20341552492467     -1.44157390604038
  H   0.61043827070760      1.30710040652297     -0.54738458392103
  H   -1.92932690781709      1.96996912758685     -2.37355600858534
  N   0.54772263551624      3.95897002179542     -0.33016772211910
  H   1.10364308100004      3.47804601950969     -1.02115539162512
  C   0.76047898206937      5.31444189564076     -0.33037434530674
  O   1.66690184371996      5.83362745688579     -0.93207874011755
  O   -0.10438679485335      6.05253711210947      0.38611028610083
  H   -0.77235955585076      5.47785136258227      0.79753298528946
