28
Coordinates from ORCA-job 441optt
  C   2.33202760982329     -1.31451064771347      1.77846944224919
  C   3.23901584149294     -2.39890071731896      1.82034111128140
  C   2.39200337605603     -0.37188885836659      2.77103155505417
  C   4.14605892327468     -2.51356668070176      2.83593662981915
  C   4.23330059339510     -1.55091717476176      3.88234422966587
  C   3.32745063084303     -0.45689476687782      3.82088319652307
  H   1.71680232039014      0.47760907805251      2.78501856311104
  C   3.32970552349018      0.58507988459463      4.84421964211519
  C   5.16525576342724     -1.66738121849065      4.92830684735793
  C   5.20619436450794     -0.69979000963534      5.93089494968367
  C   4.30840298261399      0.41446632427463      5.90363137126129
  O   2.53939263522340      1.54983921512757      4.80398835105937
  C   4.37432521844095      1.37265321160994      6.93187926225215
  C   6.12396664976777     -0.77738242418454      7.02410946361003
  C   5.26997723929493      1.27638223994664      7.96240251815360
  C   6.16062556952001      0.17110267173475      8.00650595486055
  H   3.67809277974975      2.20072745092080      6.87084032792467
  H   5.31892291534722      2.03066400360378      8.73994584379611
  H   6.80853353963714     -1.62025169883470      7.06504815215194
  N   7.10589104516230      0.11144775335059      9.05831266399594
  H   3.20990190847397     -3.13908141701962      1.02656242428916
  H   4.83025783388866     -3.35560551710955      2.85323485140799
  H   5.84718501617494     -2.50990235063385      4.95266337588638
  N   1.42872149030956     -1.21412479696148      0.67988076647840
  H   0.96821947225959     -2.09599751682571      0.49405898450826
  H   0.72049436680363     -0.51478171514319      0.85904628678938
  H   7.45139818427503     -0.82506708148777      9.21242959616520
  H   6.74048620635641      0.48810275885092      9.92164363854878
