32
Coordinates from ORCA-job 446optt
  C   2.03982359393625     -1.72468698113309      2.12273882758091
  C   3.01340198052849     -2.73977729977547      2.10976054651363
  C   2.13707257256226     -0.68710502142221      3.02391584477912
  C   4.05004542174987     -2.70301410349096      2.99406490082189
  C   4.17010835148492     -1.65493292401620      3.95343728167358
  C   3.19823427639253     -0.60451512987839      3.96696016361044
  O   1.11743097447877      0.23342204105059      2.97553469427567
  C   3.30428578526380      0.49924447213379      4.94233645357169
  C   5.22124877674761     -1.66485369137017      4.87368187939315
  C   5.31831572057690     -0.69242748129398      5.86808957830011
  C   4.36465319740862      0.36933817386218      5.95443065970039
  O   2.55146411428145      1.47936427445425      4.89339758976981
  C   4.49965723606335      1.29596144589756      7.03242986072816
  C   6.38073169499689     -0.75513987124827      6.82176318543080
  C   5.53558337689907      1.20199561471934      7.94427491393214
  C   6.48183822209968      0.16366082903179      7.81735251610644
  O   3.55771136817606      2.26665787692458      7.14152552892451
  H   5.63162745503471      1.90588094250286      8.75566805916008
  H   7.10167273643875     -1.55960940541251      6.73293551391890
  H   7.29259765417744      0.10233724143786      8.53518741145557
  H   2.93341524682538     -3.55182053849389      1.39543450020028
  H   4.80224172739603     -3.48402053346200      2.99654559716605
  H   5.95472620953171     -2.46161814867857      4.83567804176873
  C   1.45094940525865      1.41349857173943      2.27534051005377
  H   0.59654329576335      2.08393388895329      2.36292242016195
  H   1.63050269664434      1.18340512575076      1.21734680475923
  H   2.32374060262135      1.89347487862124      2.71724348060340
  H   1.19822599250401     -1.73390793971506      1.44271554742624
  C   3.65043490785140      3.17009821496936      8.20363347089391
  H   2.80191533858041      3.84378663611229      8.09882075836596
  H   4.57892383438695      3.75076123867018      8.16381735994859
  H   3.59421623333876      2.66480760255945      9.17449609900458
