19
Coordinates from ORCA-job 454optt
  C   1.29896105142935     -0.06605606389759      1.81947101151453
  C   1.25058487820116     -0.35098776547700      0.43048224853973
  C   0.21430368142531      0.45602402820246      2.46379547664619
  C   -0.99703853885061      0.72953705891988      1.76036454953816
  C   -1.04720588447017      0.44204806201273      0.35512066584991
  C   0.09963586240537     -0.09741043315362     -0.26844332081444
  H   2.11762157510308     -0.76552946265958     -0.06895367258820
  H   0.04904337099665     -0.31093740904109     -1.33212156904991
  H   2.20944972406949     -0.26650529748841      2.37320014273593
  H   0.24886509815511      0.67430077326316      3.52373946900459
  C   -2.12452316689492      1.26029062733517      2.37746268565361
  C   -2.24403668117014      0.71180190370640     -0.34318844322495
  C   -3.33644318426908      1.53634103581474      1.69559399952311
  C   -3.33998056699770      1.23510366211725      0.29554080443634
  O   -4.31755921728539      2.02061293879226      2.35057271895584
  H   -2.28278551238842      0.49527824931202     -1.40657065618485
  H   -4.25545127782865      1.43888617498544     -0.24924953979967
  O   -2.13982185465458      1.55621139137178      3.71149284221952
  H   -3.05262935697586      1.89857052588397      3.81672058704454
