42
Coordinates from ORCA-job 459optt
  C   2.19295008086235     -1.06611157592144      1.60112576008605
  C   3.28822306419191     -1.92129992999230      1.31986390617163
  C   2.14463676169999     -0.28172635059129      2.73016743201358
  C   4.32268456030056     -1.96780047373585      2.20004385171864
  C   4.33772551473791     -1.19114717827140      3.39899759986426
  C   3.22451274566611     -0.32456686415972      3.67498533971877
  H   1.37350929703751     -1.03565569631851      0.89540544791833
  C   0.95839104568772      0.65421736747686      2.91230526365233
  C   3.22762865300747      0.45321267691758      4.91480472288042
  C   5.42897044433622     -1.30388124108575      4.26238514466322
  C   5.47362568670161     -0.56712186977633      5.44798349596775
  C   4.39772653524997      0.29895437504707      5.78133105709006
  O   2.30614998234634      1.22230473787713      5.26010679945947
  C   4.44959211592776      1.03715412107325      6.97822956553574
  C   6.56836755652850     -0.64595213762718      6.35884900355446
  C   5.51552767284107      0.94457071623323      7.83780526975911
  C   6.58949111723104      0.08452680849763      7.51298622319336
  H   3.60720779686596      1.68397040468940      7.18939646290311
  H   5.53932137403425      1.52158768364370      8.75397815056077
  H   7.39416073360417     -1.30548124627243      6.11296782964536
  H   7.43652981890158      0.00442024554950      8.18579396055076
  H   5.17235243731316     -2.61652960038672      2.00666809885279
  H   6.24442409689162     -1.97118864298008      4.00746918748140
  C   3.29042485022315     -2.75991235337177      0.06037424068370
  C   -0.28301787870376      0.26753183145824      2.10973239738610
  H   -0.14200058131025      0.41425131557473      1.03562416730279
  H   -1.11830976998521      0.90210634225645      2.41437820521167
  H   -0.56554752246152     -0.77376732388913      2.27617883001470
  C   1.37512356833577      2.08422808800820      2.55353034615258
  H   0.70001363265814      0.65279909021140      3.96844398945219
  H   1.65401663443230      2.13568568893075      1.49650879354259
  H   2.21838009663283      2.39725661370416      3.16544254091257
  H   0.54914825037993      2.77947953424311      2.72681812935008
  C   3.27720220910546     -1.88658824500899     -1.19609979653998
  H   2.36184501984392     -1.29282563912954     -1.24033514853296
  H   3.32566207030465     -2.50072854265915     -2.09906864332080
  H   4.12166019383849     -1.19651113049029     -1.19672266507891
  C   2.11899726210874     -3.74416734461897      0.03792543452250
  H   4.21876558603764     -3.33926237460543      0.05981124290098
  H   1.16738849648544     -3.20861757409764      0.02776703544927
  H   2.13209261953149     -4.38223002723480      0.92227408437465
  H   2.15892617057769     -4.37798427916768     -0.85174275702532
