30
Coordinates from ORCA-job 460optt
  C   2.03126037158453     -0.58530136406156      1.78296459677335
  C   2.89232370581204     -1.69857249779516      1.61838721859235
  C   2.17854805736272      0.25068631096812      2.85736115842297
  C   3.88443923454369     -1.94492583135745      2.53998712218213
  C   4.06093653064885     -1.08000832355410      3.67752660351740
  C   3.17724753156647      0.03278140246471      3.81775600647628
  H   1.25552863906755     -0.40568067973977      1.04700866075443
  H   1.53190225746781      1.10721867611133      3.00407459347011
  C   2.68246630485600     -2.58681287232382      0.41424719997893
  C   4.81730812591731     -3.11601920359478      2.39886282896792
  C   3.27830176676446      0.96331989991060      4.93827665172846
  C   5.06353237909562     -1.30438083662932      4.63074849587140
  C   5.20663342979715     -0.43653729440791      5.72318218987471
  C   4.34399140218254      0.68389007146502      5.89509434416849
  O   2.50822496897388      1.93155671963062      5.06910916213503
  H   5.74200745126725     -2.14179987458146      4.54350732324629
  C   4.51518883672742      1.53842026225304      6.99877956459604
  C   6.21868068209941     -0.63328968437879      6.70984399588600
  C   5.49978432651990      1.32413055311233      7.93048809917331
  C   6.36095174238585      0.21390150402616      7.77246705615842
  H   3.83142001501510      2.37515270889934      7.07800887653981
  H   5.62039557211416      1.99120392190018      8.77507062641743
  H   6.88508552625893     -1.48235041628706      6.59702287393474
  H   7.14299524445063      0.03310833823954      8.50222481185278
  H   1.84983949152004     -2.21820256247692     -0.18493517042437
  H   2.45577945638350     -3.61629803711980      0.70196211857893
  H   3.56628873740289     -2.61797860291618     -0.22760255082604
  H   4.60708364223152     -3.71019526115925      1.51220253942101
  H   4.75028134967482     -3.77271627927623      3.27151941312003
  H   5.85691322030782     -2.77929074732143      2.34344358941154
