25
Coordinates from ORCA-job 465optt
  C   3.21631665329035     -0.60351235756565      2.87529292508392
  C   3.93662774784529     -1.81059041186439      2.62887618950010
  C   3.57235803854931      0.19897890633931      3.91471047641369
  C   4.65815062023609     -0.13504357291378      4.77618552693976
  C   5.38590271777296     -1.34936601432596      4.52833448769507
  C   4.97891609641232     -2.16526207337962      3.42550155836447
  H   2.38809365269356     -0.33328238759658      2.23196238651375
  H   3.64597771199818     -2.44470259146337      1.79969586829657
  H   3.03161016441505      1.11846275398404      4.11147157606651
  H   5.52607407494201     -3.08308759927645      3.23762810955491
  C   5.03802238553805      0.66884600075709      5.84842767483680
  C   6.09731901080590      0.33139272039017      6.68151412692386
  C   6.83867135021665     -0.88472478408027      6.43970405317049
  C   6.44633479382157     -1.68750340336225      5.35716992308373
  H   4.50730751635028      1.59033482016481      6.06229840038597
  H   6.99279642938803     -2.60620556573080      5.16348367692143
  C   6.44294030989064      1.20746857610018      7.78785388976063
  C   7.91453252910231     -1.22007621735753      7.28813736394769
  C   7.53194722221672      0.78765100229806      8.58408839213986
  C   8.23895613302323     -0.38020647964141      8.34061318713418
  O   5.83748999709865      2.28737642613543      8.06373919760994
  O   7.84989687033882      1.61812582326171      9.62638243592044
  H   8.47409483855672     -2.12971629458736      7.11073699565407
  H   9.06327444131945     -0.62463225652720      9.00282809717765
  H   7.18674869417777      2.32839498024181      9.52440348090436
