32
Coordinates from ORCA-job 467optt
  C   2.08699154890764     -0.88450549433448      1.63541048345122
  C   2.95868021180328     -1.99654726435657      1.62158225707004
  C   2.22437495331663      0.01540000986628      2.67931534131413
  C   3.92776410341203     -2.19832225458262      2.57248408701687
  C   4.08868772406449     -1.25544061980681      3.65185930919042
  C   3.18436620054485     -0.14125663824572      3.67683354175558
  C   1.08359428249396     -0.75547176107413      0.58195014748262
  H   1.57813312782689      0.88089491570895      2.76702005288784
  H   2.83423996911146     -2.74304950125509      0.84254793958696
  C   4.77216930211804     -3.39797739512016      2.51434362677226
  C   3.24505251951182      0.86847114417947      4.73779114925719
  C   5.07294581457060     -1.38385406373197      4.62904527917294
  C   5.16805159138952     -0.44356783534848      5.67153258692505
  C   4.28001940919198      0.66386714842521      5.74887638955356
  O   2.47136284489204      1.83686047171339      4.77504500591581
  H   5.79395343714604     -2.18908642761926      4.59193569660417
  C   4.39681925200428      1.58626990006073      6.80221747219132
  C   6.15624496062279     -0.55677653794428      6.69058553557656
  C   5.35730735575104      1.44887564592733      7.77389341648260
  C   6.24743760037741      0.35520135588431      7.70599922595850
  H   3.69476653836596      2.41115888094260      6.81112182136706
  H   5.43628748185830      2.16602174593626      8.58127404443675
  H   6.84433481092889     -1.39439157844713      6.64688079287287
  H   7.01153770407363      0.23684169331360      8.46646114359432
  C   0.19764342823495      0.22673078475785      0.40286283402321
  H   1.07896676137952     -1.57313412746115     -0.13656554876723
  H   0.13920859605683      1.07823496694982      1.06920230071913
  H   -0.49748334058430      0.20009798445387     -0.42574087275712
  C   5.23303940822371     -3.97431364557252      1.40582914174911
  H   5.02879607611731     -3.84404815522742      3.47157241094278
  H   5.04936938124959     -3.54499241451100      0.42761306025541
  H   5.81503694503872     -4.88633093348091      1.44725032739796
