22
Coordinates from ORCA-job 468optt
  C   1.14985634475313      0.03040247957822      1.77532852391861
  C   0.99621181863623     -0.17840098649849      0.39248351274513
  C   0.08372353957501      0.50959815203002      2.50344278398902
  C   -1.14945075342340      0.79402518489127      1.90129258642298
  C   -1.31341830650627      0.58659776976743      0.50736018509811
  C   -0.20115799656324      0.09275677291673     -0.22085324156241
  H   1.82737794838462     -0.55600878954000     -0.19332780894569
  H   -0.31375024921958     -0.07046257698974     -1.28818139726320
  H   2.09639157545835     -0.18513162205308      2.25650825101114
  H   0.15336083415062      0.68619092974236      3.57029424328511
  C   -2.25710133568121      1.30651608266432      2.73597314378506
  C   -2.55109545612408      0.86665287692093     -0.12430405597339
  C   -3.46164131174749      1.56202334179539      2.03395497362837
  C   -3.58454040645583      1.34542855323938      0.66326159688247
  H   -4.31440979435507      1.93928686857018      2.58306147181372
  H   -2.65104774800168      0.70025137884633     -1.18649306018061
  O   -4.82784961038430      1.64726590244865      0.14629482907651
  O   -2.10509418877697      1.48834002839934      3.96625301629404
  C   -5.01910796524239      1.46096066978312     -1.22666855056314
  H   -4.33706818328401      2.08179173743941     -1.81760192524723
  H   -6.04644018546574      1.75407853211707     -1.44054648162558
  H   -4.87572856972667      0.41437671393115     -1.51641259658903
