24
Coordinates from ORCA-job 485optt
  C   3.24605467570885     -0.63184854567570      2.90986792608852
  C   3.95619409270985     -1.82240982749849      2.63587907528760
  C   3.57246175953741      0.19563768917480      3.92913209150063
  C   4.66773352737980     -0.13265320862300      4.77777259423262
  C   5.40221561236099     -1.33797378204461      4.53314819386445
  C   5.00757635032178     -2.15809529329658      3.43351863733646
  F   2.19630770395317     -0.33668916966616      2.10081888064539
  H   3.64738705139787     -2.43818880882911      1.80127432848786
  H   3.00262109872152      1.09996880392560      4.10247246997176
  H   5.56456792217438     -3.06822799935374      3.24115528932541
  C   5.05105421780159      0.67748005253984      5.85206870573302
  C   6.10374752958509      0.34545228741362      6.68130073255402
  C   6.84409419711188     -0.86865399860434      6.45177365507967
  C   6.46506339560021     -1.67146331119650      5.37035349652481
  H   4.52172791238753      1.59915050631978      6.06754857596093
  H   7.01438929705125     -2.58874707112947      5.17927526794870
  C   6.43917197967968      1.26235353662158      7.80490212895317
  C   7.91303838686814     -1.20282450631464      7.32001441949738
  C   7.51880497138887      0.83281259273598      8.61852698270307
  C   8.20978204816689     -0.35238381876243      8.36491314919135
  O   5.78875670926813      2.31561266971875      7.97694855383432
  H   7.79528074587551      1.46451675683418      9.45359983496939
  H   8.47364115025259     -2.11460942940136      7.15654523695369
  H   9.02783766469686     -0.61825612488797      9.02953977335567
