19
Coordinates from ORCA-job 487optt
  C   1.31682180280090     -0.07160480227894      1.82253628963296
  C   1.26675183261811     -0.35337590041818      0.43847297492440
  C   0.23371915386253      0.44980603058319      2.47414885590406
  C   -0.99232195486359      0.73463257238452      1.79761099752497
  C   -1.02181482383451      0.44073922490633      0.39511863175679
  C   0.10561659821108     -0.09500907668750     -0.25042536979638
  H   2.12989846067810     -0.76606328133882     -0.06826036969512
  H   0.03869778964142     -0.30127420494736     -1.31170896606151
  H   2.22813697831525     -0.27202460921928      2.37595897476926
  H   0.28822675766158      0.66056783888841      3.53688492115618
  C   -2.10373594629637      1.26815526499649      2.45125401587173
  C   -2.23914777286287      0.72046841550723     -0.28695253786620
  C   -3.32374397259743      1.55228033694739      1.77824675317808
  C   -3.31777840949827      1.23930634256051      0.35298767845128
  O   -4.34898967113398      2.03188334072936      2.32099537331041
  O   -2.26216523474739      0.43423495098532     -1.63787445821680
  H   -4.23639710703733      1.44375343809004     -0.19170414034111
  H   -2.05239100082630      1.48045367421650      3.51328891567629
  H   -3.13490348009087      0.67170044409479     -1.96333854017934
