14
Coordinates from ORCA-job 489optt
  C   -1.58806877163381      1.36846332241776     -0.00004951900429
  C   -1.82841244795635      0.01858028550510     -0.00002529842579
  C   -0.24533783182026      1.91504110954488     -0.00020040193082
  C   0.77215825767517      0.90972135722119     -0.00004432170763
  C   0.50069008298831     -0.44996062631310     -0.00001456798475
  C   -0.79353038302712     -0.93486787587422     -0.00005017138547
  H   -2.86116494870755     -0.32685222919193      0.00002875302990
  H   -0.99011980799609     -1.99732626528093     -0.00002262874499
  O   -2.62132620771129      2.29162348381557      0.00002412563345
  O   -0.01302985081765      3.14959254838866      0.00008715419571
  H   1.80088620884025      1.26127559195354      0.00002329297315
  O   1.53908429081266     -1.37331495778172      0.00005621141878
  H   -3.44447071449922      1.79636799701878      0.00010657897560
  H   2.35817212385299     -0.87104374142358      0.00008079295712
