20
Coordinates from ORCA-job 492optt
  C   -2.29585926954284      1.59289566967010     -0.12013610615232
  C   -3.46914982424353      1.14586750346817      0.46648732932432
  C   -1.20137774628615      0.72209410657465     -0.46775027230966
  C   -1.45604067493162     -0.66042321476300     -0.15022763359593
  C   -2.63078075048753     -1.10405853549225      0.43607141589364
  C   -3.65029855497398     -0.20687600401620      0.75255164963626
  O   -2.06160205203545      2.91746430787719     -0.42865280545557
  O   -0.13673393431026      1.12605528347753     -0.99463229344591
  C   -3.07453199944315      3.82541821115904     -0.13909792247746
  H   -2.71862235620058      4.80545963912787     -0.45778970906931
  H   -3.30206231990156      3.86047236520713      0.93472840705668
  H   -4.00325729667557      3.59095742320341     -0.67628018237002
  O   -0.41471053497961     -1.50112252995621     -0.48720300888498
  C   -0.58590951117309     -2.85736832911756     -0.23039693598231
  H   -1.44456110967630     -3.27393580184174     -0.77380662274719
  H   -0.72994314952938     -3.05948944335024      0.83942035402765
  H   0.32258154005804     -3.35814114056973     -0.56584308321025
  H   -4.26109025619257      1.84278892265881      0.71054516470468
  H   -4.56639085744296     -0.55431117579509      1.21149432346227
  H   -2.77183934203189     -2.15474725752189      0.65637793159542
