19
Coordinates from ORCA-job 493optt
  C   1.30913322167064     -0.06424048388470      1.84739142431425
  C   1.27574226194179     -0.35173533547440      0.46574564080239
  C   0.22394054128113      0.45710452885873      2.49082432337149
  C   -0.99059507131435      0.73276008970936      1.78980139848206
  C   -1.02807411392685      0.44141310727209      0.38815159052726
  C   0.12219549280433     -0.09771804549852     -0.23318769939188
  H   2.13062387119507     -0.76429993270312     -0.05239511625479
  O   0.12514142576674     -0.38945900475194     -1.57544424643795
  H   2.21914693527891     -0.26408325308386      2.40236601860774
  H   0.26461985173716      0.67294423676278      3.55219482048057
  C   -2.11125657918608      1.26740588422393      2.43119274265532
  C   -2.24308083519519      0.71849360167765     -0.29753623560238
  C   -3.33378868807658      1.55348935134889      1.76578257804598
  C   -3.32493387044643      1.23826207504300      0.34155573151045
  O   -4.35556379879643      2.03389122889464      2.31510138236894
  H   -2.33983260693009      0.51854731599744     -1.36311390669759
  H   -4.24227337676398      1.44164116783506     -0.20023926236941
  H   -2.05933604006753      1.48019471677919      3.49376744045409
  H   -0.73449862097224     -0.15957124900621     -1.93706862486653
