28
Coordinates from ORCA-job 494optt
  C   1.98942700739574     -0.66645344471859      1.65109229567572
  C   2.88219470788953     -1.76708971098712      1.53728783474400
  C   2.14884356629366      0.16834906591038      2.74209392825313
  C   3.85896380746722     -1.99771345909325      2.45877902798487
  C   4.03891348535832     -1.14331249331171      3.58948171285066
  C   3.13888180400278     -0.03611712888041      3.70733199064792
  C   0.96652056224149     -0.47273689051651      0.62716315388312
  H   1.50382591647730      1.02628987691212      2.89285364839975
  H   2.77522992157208     -2.43701226382946      0.68903977549039
  H   4.52587682063484     -2.84574879715943      2.34501498974855
  C   3.23320681043571      0.90031735386553      4.82778856567208
  C   5.03596516076245     -1.36187202036366      4.53825007232112
  C   5.17301532088185     -0.48859344198539      5.62819232759977
  C   4.30078377161791      0.62737938078642      5.78859278813333
  O   2.45971133750521      1.86308233054945      4.95432835499470
  H   5.70917585528211     -2.20513215951478      4.43424238597873
  C   4.46245469235458      1.48909923603678      6.88741269994475
  C   6.18223039039397     -0.67272998957257      6.61829986108469
  C   5.44553593260863      1.28691689372691      7.82396835244175
  C   6.31454539571251      0.18268510991299      7.67629409031027
  H   3.77339467308232      2.32193660317176      6.96002060049919
  H   5.55806231559971      1.96024191712882      8.66451051434571
  H   6.85490300748607     -1.51755290545448      6.51319948561058
  H   7.09521507434434      0.01206261750421      8.40974267445286
  C   0.04009140747392      0.48585126802509      0.55363853297738
  H   0.98029228265187     -1.21659431861171     -0.16777729862718
  H   -0.04456676769975      1.26437269769302      1.30139403513643
  H   -0.66312425982651      0.51262467277559     -0.26819640055436
