32
Coordinates from ORCA-job 495optt
  C   1.99550888671999     -0.69896995332440      1.60015393288732
  C   2.86252832363257     -1.81216919798198      1.44635092253049
  C   2.19122450270054      0.11127463668928      2.70448505396751
  C   3.85121354374251     -2.08172713178963      2.34712894421136
  C   4.06439309616860     -1.25658323153026      3.48930829728735
  C   3.19339913253789     -0.13516633678477      3.64603696291292
  C   0.95563648499925     -0.46525607095873      0.60003413431035
  H   1.56816791553968      0.97975074908656      2.88341749497145
  H   2.72789006053040     -2.46140302541495      0.58632114927976
  H   4.49914291361176     -2.93978243887647      2.20394997393770
  C   3.32868257635002      0.77782094850694      4.78602511265290
  C   5.07522157550212     -1.51763279186589      4.42142995541529
  C   5.24538370322163     -0.67634823144957      5.52229964670567
  C   4.40215505308808      0.45696499766405      5.72350461835298
  O   2.58097811522421      1.75468931537239      4.93962917765984
  H   5.72698148669203     -2.37319823825233      4.28687889887829
  C   4.60125298018083      1.28207527183500      6.83763543041136
  C   6.26497812750895     -0.90272461251488      6.49964657829365
  C   5.59119181959846      1.05041852689108      7.77254581452624
  C   6.43090894031100     -0.08142540920293      7.57181944857895
  H   3.93355008253638      2.13073657573779      6.94360578047081
  C   5.74088279960424      1.95114145470882      8.90837464022631
  H   6.91743073351254     -1.75926626398215      6.36654518901681
  H   7.21857836376595     -0.29434149695934      8.28546874486231
  C   0.03591445957404      0.50111121442052      0.57784850080973
  H   0.94972863552687     -1.18244195790427     -0.21883192622531
  H   -0.02948258579482      1.25278293824272      1.35439451217110
  H   -0.68199339563288      0.56216306673312     -0.22925983060847
  C   6.63039124179119      1.88359859328737      9.90290244860908
  H   5.02659176600898      2.77107554776719      8.92281140156351
  H   7.37469287171372      1.09939505231848      9.96314960590337
  H   6.63475578953315      2.62268749953125     10.69290938542921
