28
Coordinates from ORCA-job 496optt
  C   2.26889929484120     -1.21925908585020      1.81523577359103
  C   3.11134352640668     -2.35142405596780      1.87683570077732
  C   2.36021547581726     -0.25848560504826      2.78565738120975
  C   4.00226509385687     -2.51690475998300      2.90423387470601
  C   4.10157818632222     -1.54176155496355      3.95355063141506
  C   3.26733365323018     -0.39472087419127      3.85518785698465
  H   1.74460211424913      0.63149970165415      2.77146788834265
  C   3.31570259323407      0.65930889708488      4.86519219226282
  C   4.99031819206578     -1.70310035632867      5.02914511216712
  C   5.07897138800942     -0.70553141142191      6.01404382496332
  C   4.26541453143390      0.45925076423983      5.95657350398048
  O   2.59101467721565      1.66752698996106      4.79899657610213
  C   4.34702952134072      1.44043430317724      6.96468767404954
  C   5.99730819806897     -0.80998326109053      7.11277592500003
  C   5.21460990031552      1.29964786305604      8.01359201915772
  C   6.05324009425034      0.16464053671605      8.07382716441673
  H   3.69534487001361      2.29939560242710      6.87061680442326
  H   5.27644135362616      2.05247811782907      8.78988437654838
  N   6.82046427666406     -1.95402972780161      7.19506844293721
  H   6.76314334268192      0.05910086976381      8.88918541329276
  H   3.06305255483377     -3.10477417566365      1.09577633213205
  N   4.82281020755655     -3.66365181447619      2.97282171671695
  H   5.50027879259325     -2.64481135742112      5.16944208460178
  H   1.56960397763014     -1.11669049884516      0.99443224053289
  H   4.90744111021599     -4.12142117916130      2.07656258900272
  H   5.74155576710330     -3.44805173242207      3.33808316818324
  H   7.13526119940164     -2.25886596403168      6.28293370744610
  H   7.61455610702155     -1.80432623124124      7.80088002505617
