36
Coordinates from ORCA-job 4optt
  C   1.21517993905618      2.35373895026294      0.73234012879680
  C   2.30290083058978      1.53881767432089      0.52572924261115
  C   -0.16436186150480      1.84784016180866      0.55193162790639
  C   -0.30393292173796      0.45828632326687      0.14040778436376
  C   0.86025769318749     -0.33006927310856     -0.06509125763129
  C   2.14690003633038      0.21287868821498      0.12947317553187
  C   -1.61708941111187     -0.13780437564051     -0.05952706600902
  C   -1.64688654338265     -1.55720200488780     -0.47934436783618
  C   -0.48475477662975     -2.26945704753021     -0.65825660022153
  C   0.76125334258187     -1.68006043818101     -0.45990120751846
  C   1.33651388357150      3.80225404817134      1.12780371561819
  H   3.30588218227981      1.92538888152511      0.67353372922023
  O   -1.10473040081349      2.62611215784239      0.76022384060644
  H   3.01183534102639     -0.42005521985973     -0.03121884783726
  O   -2.69641558865828      0.44865548215795      0.09740741546963
  C   -3.01456947789350     -2.14223812655084     -0.71514829931949
  H   -0.52836843251583     -3.31192257868798     -0.95607464732193
  H   1.67086617400141     -2.25176311869158     -0.60233024695624
  C   1.03532281863026      4.70675784506388     -0.07414440332174
  H   1.79115769658123      4.56082796999360     -0.85098635999457
  H   1.04753578800998      5.75970487588490      0.22175336302809
  H   0.05479761594222      4.46714014370810     -0.48189038618568
  C   2.68420734719396      4.17122892285708      1.73871155666092
  H   0.54666901019178      3.98260314943397      1.86232842129298
  H   2.66211845488422      5.20131041864052      2.10157375578587
  H   3.48760407837629      4.10365099498154      1.00015378437547
  H   2.93912280650868      3.51723459407232      2.57488137909729
  C   -3.59313557018412     -1.61644309685208     -2.03520655973342
  H   -4.61624980572519     -1.97524098137133     -2.17963901285844
  H   -2.98583613614356     -1.96570838814937     -2.87505997202027
  H   -3.59939785044647     -0.52779220033900     -2.02886374638801
  C   -3.05461527145257     -3.66642970381131     -0.69218414094862
  H   -3.65164909583154     -1.75310982129912      0.08397279313748
  H   -4.08770644647351     -4.01543678072875     -0.75660084063352
  H   -2.61265026388762     -4.06636297851803      0.22249150867155
  H   -2.51406518455068     -4.09177514799985     -1.54214925943854
