32
Coordinates from ORCA-job 500optt
  C   1.81118375955377     -0.64861029164022      1.86575085068723
  C   2.83152575275844     -1.60145270936649      1.58610227183422
  C   1.93850835585040      0.14596204926579      3.00754117012625
  C   3.90247318670905     -1.76051833336978      2.39853315800422
  C   4.06465676612346     -0.98116631819538      3.58445853067004
  C   3.05755446023341     -0.00420539901538      3.88273477449097
  C   0.64463598153779     -0.59764786003765      0.98137578413062
  C   0.89489927616361      1.15038255761839      3.31620290001473
  H   2.72018673219811     -2.24015843497038      0.71821358801426
  H   4.65565736681814     -2.50778314884558      2.17280736451232
  C   3.21104976774518      0.83526508793928      5.07190848624469
  C   5.16786102109156     -1.18904845475251      4.40719812420734
  C   5.33020282519997     -0.43628202880775      5.57746436998633
  C   4.37695491688185      0.56004995612506      5.91702337399748
  O   2.41501436191077      1.73924540422747      5.38366194962895
  H   5.90151116947691     -1.94051112466124      4.13907127698665
  C   4.54843896723008      1.31355078323726      7.09154391864572
  C   6.43237427033139     -0.62516630149422      6.45954392950357
  C   5.61868961684581      1.10966242746000      7.92756023062263
  C   6.57178984003481      0.12141211855097      7.59651865045285
  H   3.79655075460332      2.06267102622809      7.30652117119753
  H   5.73512208536901      1.69672343892182      8.83003425319418
  H   7.16711776257759     -1.38298407527036      6.20869028803276
  H   7.42101685177096     -0.04659356360777      8.24982970524066
  C   0.43775031856213      2.04632127695099      2.44789044199845
  H   0.51649293407967      1.15257529019596      4.32900399507645
  H   0.83943024512124      2.11774799131108      1.44369093067385
  H   -0.32900216566328      2.75659868700211      2.73181416980514
  C   0.58793947827101     -1.01183682991962     -0.28778198334214
  H   -0.26045007580183     -0.19022809105744      1.41623753713329
  H   1.45540111236189     -1.38659378801533     -0.81736794406458
  H   -0.34112769594640     -0.96763134200716     -0.84115726770687
