22
Coordinates from ORCA-job 503optt
  C   -1.70690401441417      2.21847219701782     -1.63803769646140
  C   -0.61124290663085      3.23738695995712     -1.71143782710278
  C   -2.30369103953528      1.99576274995611     -0.23191437278828
  C   -1.91676431813698      2.89223084221984      0.79479368685076
  C   -0.95782547559480      3.88716754259434      0.63943149740639
  C   -0.28058358596668      4.00979011162355     -0.67968207905043
  O   -3.10333567870432      1.06803907380553     -0.11522057006395
  N   -1.34560529232469      0.97014086105852     -2.29870024461659
  H   -2.37727347092777      2.77021611045628      1.76598383145578
  C   -0.38181666863803      0.10144653103653     -1.83881906970471
  O   -0.29841121544345     -1.03774018597865     -2.22100223344986
  O   0.51616353944162      0.59664805091146     -0.97082862836838
  H   0.34601398230792      1.52018906236957     -0.73231509372452
  H   -2.54303338390325      2.61963360524154     -2.22244036215322
  H   -2.12133523784145      0.45196784026602     -2.67982181544861
  N   -0.70252657430262      4.71174757917432      1.65697235968863
  C   0.34360799657416      5.57965436642728      1.66566642405623
  O   1.34050040200017      5.65963277947033      0.97410969309084
  O   0.21041077435842      6.47627468205023      2.69339784309479
  H   -0.61338877398671      6.22709132244236      3.12976322536646
  H   -0.10317856545054      3.33223170853224     -2.66565347406288
  H   0.49892950711937      4.75070620936751     -0.76671509401427
