22
Coordinates from ORCA-job 505optt
  C   1.35834480410735     -0.01984758093620      1.91359143046852
  C   1.35072181935897     -0.34269733664909      0.53822979129100
  C   0.24305155073990      0.49430192602996      2.51028378264493
  C   -0.96535437909571      0.72789942585610      1.78777302134687
  C   -0.95168048470949      0.39449651275818      0.40131130938361
  C   0.21459447645430     -0.13779387853692     -0.19967502364772
  O   2.53729421830646     -0.85488828997460      0.04617160020862
  H   0.17617291206427     -0.37496493616122     -1.25603137440130
  H   2.26938118947004     -0.19128985625124      2.47444831455013
  H   0.26464648237754      0.73746113577305      3.56725067590117
  C   -2.11559336355448      1.25639883728313      2.38789524949711
  C   -2.14655977642888      0.61990969835851     -0.33084105902902
  C   -3.32111811405124      1.49177142218266      1.67578648121865
  C   -3.25883169954575      1.13323827216364      0.26246715540536
  O   -4.37370413954576      1.96457180837618      2.17849712369292
  H   -2.15790274754348      0.37141970396025     -1.38939489556632
  H   -4.16505578771305      1.29943388546308     -0.31077270668356
  H   -2.09930157450857      1.50184655589859      3.44483737626231
  C   2.55991704785236     -1.17150573858165     -1.31505097990155
  H   1.81786902693754     -1.93944840554644     -1.56214168832403
  H   3.55667435836496     -1.55211368740034     -1.53330314805368
  H   2.36530418066272     -0.28969947406561     -1.93625243626402
