28
Coordinates from ORCA-job 519optt
  C   2.36689201794531     -1.34506696251014      1.80128402573046
  C   3.27780312513493     -2.41058007784737      1.85977035885442
  C   2.37668397998636     -0.37403465432866      2.78778280573269
  C   4.17488240624978     -2.51691915950995      2.88502242218708
  C   4.21384027957903     -1.55280021053115      3.93081989643799
  C   3.29898997439385     -0.45218073324687      3.87710774120445
  N   1.42410065290990      0.64112089965533      2.70481565060265
  C   3.33802411055515      0.58020093307497      4.90051219224015
  C   5.13570556054112     -1.67945313029046      4.98053820567790
  C   5.18584928509512     -0.72553760129724      5.99270806832084
  C   4.30594240023626      0.39764541015148      5.96663097495823
  O   2.58766497818693      1.59409517245844      4.88665571214311
  C   4.37421131320621      1.35751371081670      6.99707331673162
  C   6.10455330568267     -0.81529968637216      7.08461327161612
  C   5.26542660227657      1.24308844744592      8.03171555328743
  C   6.14346287477227      0.13075251048842      8.06605066539338
  H   3.68635302731591      2.19159625904921      6.93353164208937
  H   5.30256574159639      1.98868916484261      8.81624883761217
  H   6.77942016520194     -1.66445047916898      7.11580954698894
  H   6.85263323549244      0.03222307698517      8.88090610910772
  H   3.25568022407432     -3.16172973310556      1.07480891438116
  H   4.87062966724038     -3.34695450191406      2.92025938952573
  H   5.81331701541324     -2.52555400797668      4.99597520863356
  N   1.43310282587183     -1.21340436607913      0.72977229090244
  H   1.28924118854575      0.97341866409019      1.75951263382008
  H   1.61381790497079      1.36694061941943      3.39771342720727
  H   1.36416209548420     -2.07405639841059      0.20363265474558
  H   0.51305404204113     -0.98351316588882      1.09504848386725
