40
Coordinates from ORCA-job 522optt
  C   1.96593852212019     -1.37763398959009      2.05415451197313
  C   2.79872439542205     -2.51391781621472      2.11029926905526
  C   2.10801693480168     -0.35285362774953      2.97596242122248
  C   3.77708967592424     -2.61467170431935      3.04788155998363
  C   3.95016483350426     -1.60254994920296      4.04158414940625
  C   3.06613769094808     -0.47230896752619      4.04371072899534
  C   3.08236812514312      0.42659117973872      5.19867781735853
  C   4.95098897565242     -1.76564862274211      5.00428522735498
  C   5.09841241385710     -0.84201135004214      6.04263768204341
  C   4.16845055026403      0.22385153003052      6.16671735886678
  O   2.23835546417704      1.31881881987192      5.40102005386228
  C   4.23827005734662      1.09740471524955      7.26687762762789
  C   6.13672699632527     -0.94487943057615      7.03548197745331
  C   5.20411014927246      0.95159513598770      8.22699938464941
  C   6.16545793913388     -0.07490619399860      8.09642850992374
  H   3.48919273168693      1.87644253623475      7.32425612860913
  H   5.24897024247079      1.62161361976989      9.07681558139083
  N   7.10531589765090     -1.98169502203213      6.87901621152304
  H   6.94038734182358     -0.16483959552862      8.84738147942091
  H   2.67063168206848     -3.29745837796364      1.37100151357686
  H   4.43630116157129     -3.47472712759174      3.07460407569812
  H   5.57529769973748     -2.64789584000648      4.96897961426561
  N   1.30867844310107      0.79008810403147      2.86007620854280
  H   1.25166212360666     -1.29380809382624      1.24880085213721
  C   1.96729236321035      2.07945399219341      2.80627974771176
  C   0.15823293932552      0.73952907188099      2.00224959817040
  H   -0.42878987153338     -0.15638406919467      2.20424903537506
  H   0.41098026131917      0.75567644471935      0.92697676481536
  H   -0.46244987524845      1.61441318932606      2.20799510775461
  H   2.94469357368297      2.02989587003198      3.27070755966594
  H   1.38186913274872      2.82801179813309      3.34281973593994
  H   2.08808963461718      2.39566100601619      1.75665069114502
  C   8.02464125009248     -1.74790906230654      5.77669166424431
  H   8.56575685392314     -2.66967356633303      5.54754469365985
  H   8.76026924761431     -0.96603079723333      6.02868260621229
  H   7.47467491453030     -1.43470667729692      4.89246976015510
  C   7.82466749330604     -2.36467565704300      8.06822886542635
  H   8.38295515624479     -3.28102573172541      7.86281664735346
  H   7.12489550992119     -2.55354314654414      8.88209264547110
  H   8.55008136863563     -1.60288259662780      8.40288493195807
