42
Coordinates from ORCA-job 524optt
  C   2.01460688235801     -0.72333162820988      1.50129537239624
  C   3.13704172710182     -1.52017018057769      1.15377376413104
  C   1.98900430444303     -0.17609723768681      2.75976761431402
  C   4.15616510218111     -1.73605230117075      2.03573317943743
  C   4.14737375848306     -1.17408943609653      3.34757664621298
  C   3.02257263240984     -0.37766064395894      3.69452547327219
  C   0.89536076992686     -0.49545122486096      0.51031923214642
  H   1.15688371401822      0.44135076690369      3.08216235056736
  C   2.92128939862655      0.23931302881034      5.01004695413043
  C   5.19360690698544     -1.39642939258830      4.25359422942204
  C   5.15534888570584     -0.82460339536061      5.53358509061852
  C   4.03965626469179     -0.01483460309572      5.91570092688689
  O   1.94624327164165      0.93947661418525      5.33960792433256
  C   3.99260453656401      0.57114769305012      7.19232020421920
  C   6.20855336670877     -1.00935354798711      6.50453253921915
  C   5.00487749316176      0.38976571193908      8.09546559307766
  C   6.11344120089446     -0.40623410267407      7.73144738959301
  H   3.12165508501897      1.17283890479482      7.42115320506077
  H   4.96771805920738      0.84752103046528      9.07630688830498
  C   7.38696142296799     -1.89697632332886      6.15440209275852
  H   6.91055090601546     -0.53667277503496      8.45402557113260
  H   5.00383445154342     -2.34871513425226      1.74600536990681
  H   6.01920847950669     -2.01794292107193      3.93586333160509
  H   3.18836398914393     -1.96877030673528      0.16579330813723
  C   1.38450222895150      0.23394358575700     -0.74370640672882
  H   1.84941119466129      1.18469794896381     -0.48104813708049
  H   0.55930058084648      0.42628185382421     -1.43458526498129
  H   2.12954465527158     -0.36751880944484     -1.27022632242148
  C   0.20285903677835     -1.80469610888450      0.12315451457245
  H   0.15735017476588      0.14258112252305      1.00499551932640
  H   -0.62962699797711     -1.62268332510037     -0.56176741433611
  H   -0.17767951837300     -2.31660809473910      1.00757248437864
  H   0.90599101569511     -2.47688304535296     -0.37471447722707
  C   6.98720885878639     -3.37649927021924      6.22512399282278
  H   6.77095954868480     -3.64521753324232      7.26225472915750
  H   7.79508323674329     -4.02010269582572      5.86582088850079
  H   6.09363438568225     -3.57116340482036      5.63325954204060
  C   8.62809408848768     -1.66494175071986      7.01254770585387
  H   7.66652284429149     -1.67173431820018      5.12079702818959
  H   8.46352666397014     -1.98366112148783      8.04436432402169
  H   8.91506966092186     -0.61233170517297      7.02453453894800
  H   9.46497573250559     -2.24792192331562      6.62153850407953
