32
Coordinates from ORCA-job 528optt
  C   2.21519289093944     -0.69150463075495      1.87316817893010
  C   3.09463672823396     -1.79861737717171      1.73009123240434
  C   2.39286234572924      0.12208879382777      2.97719359973483
  C   4.07693773702954     -2.05664776909072      2.63904639760253
  C   4.27414414545702     -1.22554362352033      3.78260294320417
  C   3.38910353727697     -0.11113274928293      3.92962621700986
  C   1.18415219788910     -0.46939939781454      0.86212783326339
  H   1.75953430648767      0.98458240329010      3.14935535436008
  H   2.97319895349070     -2.45097308009160      0.87038717537924
  H   4.73423656021136     -2.90896063878404      2.50409529089438
  C   3.50330391442460      0.80557933544818      5.06638111600507
  C   5.27782089571374     -1.47286496625272      4.71997713959647
  C   5.43042751893597     -0.61983528396200      5.82150741466406
  C   4.57366415931275      0.50228599811751      6.00934880953552
  O   2.74116708842392      1.77452781038851      5.21438666495963
  H   5.94068272217004     -2.32135202207358      4.59576307597916
  C   4.76286948653538      1.33816708457330      7.12655369717169
  C   6.44350827342509     -0.83205395085958      6.79939051933913
  C   5.74833522243999      1.10870642484603      8.04773049555491
  C   6.61448794506568     -0.00655872192659      7.88382565617594
  H   4.08686155467865      2.17908044802500      7.22471046829259
  H   5.86825835225166      1.77086499479282      8.89508168445067
  H   7.10516820845000     -1.68422535774856      6.67269821389663
  C   7.69041044273347     -0.31045320087408      8.83421433240875
  C   0.26119751240786      0.49374824155544      0.82199648038255
  H   1.18848589238231     -1.19343384627527      0.04918779119479
  H   0.18611028459779      1.25254208148344      1.59070426456612
  H   -0.44914922379118      0.54467738186619      0.00752339948120
  C   8.01219060036647      0.36844994729645      9.93343896728290
  H   8.27446366320169     -1.19405230384673      8.58849065061209
  H   7.47577405282482      1.25729579390512     10.23999146658320
  H   8.83172203070410      0.04837218091409     10.56351346908382
