24
Coordinates from ORCA-job 533optt
  C   3.19571290398960     -0.55996421131011      2.89016167523989
  C   3.90552765384698     -1.76093022159875      2.63017548459075
  C   3.56397418165392      0.22844324989230      3.93942539053154
  C   4.64833051412819     -0.12353789946210      4.78294633746212
  C   5.38289224044302     -1.33449324637420      4.53899861160507
  C   4.94760074969037     -2.12099564264842      3.42526569816976
  H   2.36746208525054     -0.28442687254356      2.25051426777043
  H   3.62377448106347     -2.39654673265282      1.80138477918715
  H   3.03183020780774      1.14843585271994      4.15305990376625
  Cl  5.78234067402545     -3.61253173566992      3.05969666646598
  C   5.03281606635176      0.68269670474104      5.86243628476861
  C   6.08372202671946      0.35563456469623      6.69015999394134
  C   6.82555560291896     -0.85612401432643      6.45228528210932
  C   6.44472447130494     -1.66714792928614      5.37235055555796
  H   4.49922158685437      1.60287875401670      6.07492269318526
  H   6.99877242153176     -2.57882184758280      5.18841345309315
  C   6.42000898995038      1.27225959076450      7.81331084324285
  C   7.90084686928061     -1.18306508917736      7.30834255314511
  C   7.51244124401369      0.84926925948655      8.61633798254002
  C   8.20507891725323     -0.32938376132330      8.35247308715263
  O   5.76389355659779      2.31877300359003      7.99500138708683
  H   7.79372138514765      1.48185403431853      9.44902209504462
  H   8.46641322928194     -2.09043878395708      7.13949475921197
  H   9.03287794089408     -0.59189702631281      9.00615021513123
