27
Coordinates from ORCA-job 535optt
  C   1.15473947873290     -0.59074969393453      1.99520301173530
  C   1.18890160881307     -0.63522800811124      0.57975220179177
  C   0.09705714387116     -0.00872264320639      2.64691634559843
  C   -0.97933826179251      0.55960416971432      1.94468346584143
  C   -0.96754269794762      0.52240225648883      0.52482829777833
  C   0.14366958921504     -0.08981900436103     -0.12034082570263
  C   2.40241690815684     -1.25355668370042     -0.08840150239971
  H   0.13620111119704     -0.11608506854400     -1.20501977010011
  H   1.97316508761252     -1.03012430232963      2.55792023515427
  H   0.04726057278430      0.03107582517632      3.72870279136205
  C   -2.08784260285604      1.16844364485697      2.69891301007719
  C   -2.04100965645100      1.08083086775027     -0.20326515806928
  C   -3.12711743696282      1.70827854937685      1.88785717224656
  C   -3.08577036286101      1.65626346339984      0.49857386738866
  H   -3.96534260984374      2.16842492877285      2.39776170313620
  H   -2.03377454719939      1.05341696029643     -1.28621565802453
  H   -3.91316747365649      2.08785491419171     -0.05900824780083
  O   -2.08681252229917      1.19365762195389      3.95298185256121
  C   2.19225134540284     -1.61778143093842     -1.55398970497646
  H   1.31381909295323     -2.25106060047819     -1.68480544451625
  H   3.06506659574798     -2.14749245244848     -1.94220948983640
  H   2.05326444869338     -0.72060660530298     -2.16131160041923
  C   3.61496729347359     -0.32613523897510      0.04865924672556
  H   2.63115953639487     -2.17704565199009      0.45622502686696
  H   4.51388532573731     -0.78606123177247     -0.37116003522549
  H   3.80438277483053     -0.08083897571976      1.09387003281841
  H   3.42442025825313      0.60906438983450     -0.48320082401141
