22
Coordinates from ORCA-job 537optt
  C   1.38049197696472     -0.26739243823202      1.62139465557089
  C   1.26565039459788     -0.47693607898443      0.23560753583778
  C   0.35053549094785      0.27676028236212      2.34628987876320
  C   -0.89004493900559      0.65767072691693      1.75229196304012
  C   -0.97966568644989      0.44669065910742      0.33964629162923
  C   0.09065187161484     -0.11407529551437     -0.37723062791350
  H   2.08248177341535     -0.90655886559081     -0.33022547524262
  H   -0.03429353023539     -0.25401984446448     -1.44692533945952
  H   2.30002843788811     -0.53489700006127      2.13037651053712
  H   0.50711724250841      0.42414709685088      3.40452139889266
  C   -1.98295222307185      1.22343320640632      2.47787656481443
  C   -2.18067660902518      0.82278338670309     -0.32890903364559
  C   -3.17856782278956      1.62397183562355      1.78391325136664
  C   -3.21030334368001      1.37575576215643      0.34678963905137
  O   -4.17425897281814      2.15528476240969      2.32761765856712
  H   -2.24500775574616      0.65525008705305     -1.40074146131575
  H   -4.12588622220146      1.66845101773397     -0.15516693633318
  C   -1.89695069967979      1.38382675970257      3.91979046473531
  C   -2.77660475867778      1.92971609452625      4.77511388333296
  H   -0.99673239205016      0.99121757865386      4.37996668801263
  H   -3.71231609088298      2.34824230925117      4.44113438598604
  H   -2.53694614162320      1.94410795739007      5.83335810377258
