16
Coordinates from ORCA-job 538optt
  C   -1.94266507402612      1.28521466940591     -0.31296670050394
  C   -2.88846614284545      1.13228388266066      0.68030411336076
  C   -1.10349481421250      0.19510529602595     -0.75113651009902
  C   -1.33981669831191     -1.04865407278145     -0.07036084641948
  C   -2.29352616147837     -1.16818057299302      0.91922388343564
  C   -3.08939392829858     -0.09559237803623      1.32183229475259
  O   -0.23938776689016      0.33712403866719     -1.65527700236228
  H   -3.83752122083706     -0.20354632946147      2.09653746394435
  H   -2.43443794885579     -2.13062447084573      1.40377729385101
  S   -3.93014847587933      2.46206506475291      1.24695895462624
  H   -0.73477742721914     -1.89827843066940     -0.36577066712517
  C   -3.48069764585687      3.81961112690391      0.15986648149194
  H   -2.43554381145095      4.09837240648608      0.28700936386249
  H   -4.11450703978279      4.66011844060732      0.43967259291547
  H   -3.66145013155250      3.56117059581677     -0.88279327102569
  H   -1.78050571250233      2.23142073346055     -0.81175744470491
