15
Coordinates from ORCA-job 540optt
  C   -1.51998764794333      1.27418360670412     -0.00000149778388
  C   -1.74090742459121     -0.08957479719256     -0.00000119520494
  C   -0.17899002058765      1.81342235237641      0.00000725775613
  C   0.86598201642076      0.83245768999768     -0.00000133643408
  C   0.60883482578777     -0.52664062161312     -0.00000133568905
  C   -0.69560219149625     -1.01874426914828      0.00000070095005
  H   -2.76897641965353     -0.44761689278946      0.00000018844408
  H   -0.89528610540062     -2.08299650481169      0.00000280742648
  C   -2.64316227606193      2.26682915375454     -0.00000232858291
  O   0.03376653017900      3.06011167248601     -0.00000380366104
  H   1.88570012578444      1.20303930810640     -0.00000149669634
  H   1.44286196125620     -1.22373534489940     -0.00000053585258
  H   -3.61570614028614      1.76823002095175     -0.00000417645794
  H   -2.57730228849994      2.92595795754863     -0.87060639135535
  H   -2.57730494490760      2.92595666852897      0.87060314314135
