16
Coordinates from ORCA-job 547optt
  C   -0.63132509514850      1.06230345525280     -1.05076063009271
  C   -1.86118022228823      1.67779053217982     -1.02256461291478
  C   -0.34779462052740     -0.14035179867092     -0.30597446205293
  C   -1.46794443712744     -0.63521443559014      0.45713574158213
  C   -2.69054243715301     -0.00530696045264      0.47106258708725
  C   -2.92433387261452      1.16947748969617     -0.26048150049852
  O   0.77183241334321     -0.70828030791144     -0.32371269131323
  H   -3.50478793928334     -0.41939091975555      1.05890657382996
  S   -4.48451694142959      1.97849010023318     -0.21555137458323
  H   -1.30997380468265     -1.54385488767879      1.02761822826994
  C   -4.27708483246453      3.09861547087408      1.19935071628124
  H   -4.07391502556038      2.52659830214825      2.10389057357215
  H   -5.20409542059060      3.66064808573498      1.32465726887488
  H   -3.45479074641871      3.78890853067238      1.01530242562812
  H   0.17532138344202      1.47075892596290     -1.64948088685848
  H   -2.02657840149627      2.58107841730488     -1.60278795681179
