28
Coordinates from ORCA-job 549optt
  C   2.29348200160294     -1.27083204541515      1.78634491237794
  C   3.18047522471770     -2.37228593793333      1.82952447312991
  C   2.36989233278799     -0.33239138774183      2.77954788239548
  C   4.08570064078024     -2.50993960647088      2.84278027804107
  C   4.18936231727756     -1.54937777115777      3.89176866137631
  C   3.30294439336105     -0.43776372665889      3.83164102088169
  H   1.71233287832123      0.53048657694848      2.79548619970525
  C   3.31398619647929      0.60451394101505      4.84819608587953
  C   5.12257382703477     -1.68731529889209      4.94072557994651
  C   5.16832598380524     -0.70988717003139      5.94226699671724
  C   4.28617273574048      0.41997337681304      5.91422183015062
  O   2.54112850455516      1.58312688726984      4.80515276469175
  C   4.35060980333127      1.38294136386982      6.93643171454793
  C   6.08487350807599     -0.78096747648944      7.03942433271106
  C   5.24055370707463      1.28278988102010      7.97652203637109
  C   6.11787220179837      0.17580293936820      8.01508729297483
  H   3.65798672882500      2.21280546654654      6.86107769871827
  H   5.27453329803226      2.03489249643200      8.75485385095564
  H   6.77074618618473     -1.61755084745415      7.09550784432437
  H   6.82878320648336      0.08239053442063      8.82935323684851
  H   3.13701623382862     -3.11179144637473      1.03538639054804
  H   4.75515240797688     -3.35881572968304      2.86868431325130
  N   5.99688215138154     -2.83392455974161      4.94760412751837
  N   1.39524120740958     -1.15120285883887      0.68794279377848
  H   0.94447773959924     -2.03163182535637      0.47490694106247
  H   0.68215076328449     -0.45926230167035      0.87536141163899
  H   6.97119216003907     -2.55249291195994      4.91202122855495
  H   5.88413166021102     -3.37547056183375      5.79811810090203
