34
Coordinates from ORCA-job 54optt
  C   -0.95581791892883     -0.39507803720800      0.09349722818761
  C   0.50859870075686     -0.35078608599522     -0.06936169204833
  C   -1.61597324490591     -1.67712258019052      0.13551575090747
  C   -0.87054838108629     -2.86393119117422      0.01948273752923
  C   0.51958528888229     -2.80152144726675     -0.08181424351509
  C   1.21348334495631     -1.60019310288237     -0.12800879186397
  C   -1.70575863613495      0.75183034595247      0.21956642401356
  C   -3.03131965589101     -1.68840291027956      0.35863928209047
  C   -3.13443566885333      0.75758425917662      0.40144537721069
  C   -3.75624988880520     -0.55385832623424      0.48294708855758
  C   1.22431231939076      0.81980839113834     -0.16452549457863
  C   2.63716445041026     -1.58318726543773     -0.26703477116893
  C   3.33378480186131     -0.42954739482712     -0.34936069855119
  C   2.65954203627667      0.86240994741474     -0.30670689990207
  H   -1.24210020718302      1.72825711427318      0.19561016484748
  O   -3.79615671360874      1.80582921767447      0.50088806798025
  H   -3.52792788879039     -2.64543707928425      0.45475084537245
  H   -4.82418108614860     -0.58114196755597      0.66325814331707
  C   -1.49813734643690     -4.20691622051223     -0.02017181232754
  H   1.07942464391223     -3.72701637949378     -0.16921177464784
  H   0.73798170025632      1.78505634545904     -0.13740149642162
  O   3.29278833896654      1.92840147827761     -0.38892999098830
  H   3.14819938999273     -2.54040075172754     -0.30817046902548
  H   4.41175218164248     -0.41570649567006     -0.45492575212873
  C   -2.51649412591129     -4.51324838933414     -0.92705833568304
  C   -1.03776312273511     -5.22619320978036      0.81640152390281
  C   -3.05911669215253     -5.78800591265379     -0.98840738967275
  C   -1.57927426640825     -6.50271440828415      0.75713094644795
  C   -2.59458171408336     -6.78977696077141     -0.14492795174406
  H   -2.87093985188025     -3.73776686154186     -1.59474527218575
  H   -3.84409506441425     -6.00214033107297     -1.70314133306042
  H   -0.25308430896317     -5.00166259158909      1.52872911630225
  H   -1.21061811223739     -7.27375300983627      1.42242067465695
  H   -3.01934330174597     -7.78447818876280     -0.19187920181007
