12
Coordinates from ORCA-job 550optt
  C   -1.56643762093823      1.32328386106787     -0.00001771386876
  C   -1.84199601150045     -0.02422254817397     -0.00000113359496
  C   -0.25761314574221      1.90904883713106     -0.00009974206165
  C   0.74399191301025      0.88277296887832     -0.00001640863289
  C   0.50472247560869     -0.47179746413766     -0.00000032135457
  C   -0.80347224851480     -0.95449793682299     -0.00002124976540
  H   -2.88088318590441     -0.33374153196407      0.00003137082094
  H   -1.00642535077130     -2.01627517397648     -0.00000652208030
  F   -2.61954386101558      2.18232955414846      0.00002644184707
  O   -0.02205423790978      3.14093044953805      0.00004843185026
  F   2.03835102463340      1.29696081693036      0.00002470534532
  H   1.35611024904442     -1.14281183261897      0.00003214149493
