26
Coordinates from ORCA-job 551optt
  C   2.12618986799148     -1.04542697041294      1.71241512653614
  C   2.97315418575152     -2.17976141611228      1.70007558768114
  C   2.23244541092562     -0.14135758389671      2.73354921255142
  C   3.88648914388539     -2.37195562753952      2.69553846951697
  C   4.03074069095339     -1.45159343225480      3.77911104873577
  C   3.16968273428522     -0.31939553721246      3.77132113568488
  H   1.40561734134958     -0.90763500411747      0.91628801945974
  H   1.60527708764028      0.73933598263734      2.78442412015471
  C   3.23754078481707      0.67551876546730      4.83643035927302
  C   4.96986858079595     -1.65604174594542      4.79538075080077
  C   5.06814042147717     -0.72092218421729      5.83865243023585
  C   4.22794650592946      0.42688435222632      5.88052625518704
  O   2.49664964198685      1.67403274030224      4.85327390617400
  C   4.33630527036710      1.35211320859734      6.93849878950526
  C   6.00967144454533     -0.86582498732069      6.90771328804758
  C   5.24759276466052      1.17152905287374      7.94321330854970
  C   6.09762902017809      0.04305303497407      7.92180930583972
  H   3.66901791768138      2.20376540150485      6.91686517747100
  H   5.32746927121452      1.88427288475503      8.75469625219442
  O   6.85858278604473     -1.94295641467213      6.93443777868621
  H   6.83173256275193     -0.12235945075602      8.70100740212806
  H   2.90082933450934     -2.90716160837458      0.89587483137481
  O   4.72308622277337     -3.46561239880741      2.71261785413464
  H   5.58196142386649     -2.54567183321728      4.73855829991468
  H   4.52855708393181     -4.00272628594641      1.93996317847213
  H   6.70429249968623     -2.46365294253483      6.14114811169014
