24
Coordinates from ORCA-job 552optt
  C   2.13376888578109     -1.06510161224154      1.72004377961116
  C   2.99007817914943     -2.17879346006999      1.74178376134283
  C   2.25170346552809     -0.15759018952866      2.74467868759407
  C   3.91835916120834     -2.40064498359880      2.70568473221581
  C   4.04566844282115     -1.46179352428031      3.77364880067957
  C   3.18350761989326     -0.31790481103935      3.78101797324384
  H   1.41840834055228     -0.95367187083359      0.91727041937321
  H   1.62130291090662      0.72206275658757      2.78995227605919
  C   3.24594303344033      0.68178587542029      4.83987458362612
  C   4.96448043907291     -1.62184883492429      4.79606139807239
  C   5.08728766031115     -0.71822494666723      5.84633568553237
  C   4.23795197197983      0.42936937979803      5.88188535768008
  O   2.50458879542696      1.68110562506102      4.85775285607230
  C   4.35835365884905      1.33637692549778      6.94681323972214
  C   6.03048923220308     -0.89066263677083      6.90079520034045
  C   5.27197911380688      1.15046736687924      7.95531889104405
  C   6.11464746120070      0.01747285972770      7.91933122256092
  H   3.69260844724718      2.19081917082024      6.93410799896017
  H   5.34925625836976      1.85976679045313      8.76962837919590
  H   6.67826687590786     -1.75721049962849      6.87843463631104
  H   6.83978252502024     -0.13601507183476      8.71101064286357
  F   2.86640969502486     -3.07835728118303      0.73291244710853
  H   4.54904833454941     -3.27729262984947      2.66542029853975
  F   5.78220949174937     -2.72259439779461      4.77656673225041
