20
Coordinates from ORCA-job 553optt
  C   1.29031885549045     -0.08649223549991      1.87057178209649
  C   1.24163001709907     -0.39914630723880      0.49532569885121
  C   0.21846877912645      0.46837892642329      2.50765417794838
  C   -0.99667980069691      0.73947306994223      1.80540324039017
  C   -1.05331805755548      0.39604683881106      0.41673914053206
  C   0.08605467144848     -0.15674763295296     -0.21730385158367
  H   2.10536647951852     -0.82404438082993     -0.00389553456944
  N   0.02300751184941     -0.50020760737457     -1.58603583280187
  H   2.20308124771188     -0.28383422914666      2.42241967687881
  H   0.27008118334608      0.71443412895250      3.56212150324283
  C   -2.10115689038262      1.31638497345531      2.43793941379710
  C   -2.28096409166021      0.63802789633873     -0.25989308391327
  C   -3.32670534902911      1.59456854738250      1.77444296375128
  C   -3.34739298933600      1.19943834488580      0.37074976806547
  O   -4.33003325647984      2.12387652815210      2.31481645727022
  H   -2.38771963869588      0.34492603158001     -1.29977199700340
  H   -4.27818259823399      1.36859609355249     -0.16045618209316
  H   -2.03408190919009      1.57079808769591      3.49066066785271
  H   -0.54412806670769      0.13853914864692     -2.12431903849236
  H   0.94251390237745     -0.57248622277600     -1.99652897021960
