24
Coordinates from ORCA-job 554optt
  C   2.13807442962631     -1.06340511101490      1.70295546004893
  C   2.98818399494310     -2.17982537082746      1.72701696323306
  C   2.25579260951769     -0.16332118256325      2.73421528552813
  C   3.90705986919466     -2.40390570424055      2.70037940028914
  C   4.04335280010655     -1.47761642722914      3.77720387106808
  C   3.18245229999480     -0.33800789892139      3.77376314379243
  H   1.42926496961019     -0.94272201380454      0.89562975679559
  H   1.63045077114964      0.71989761084224      2.78011392079220
  C   3.24275030288212      0.66069979018415      4.83760080181348
  C   4.97927842875530     -1.67103875989452      4.79810793198151
  C   5.07973817089266     -0.74113870281261      5.83760416000983
  C   4.23380599166567      0.40882655011744      5.88030732354065
  O   2.50197615552734      1.65794248913745      4.85426494098123
  C   4.34973521377157      1.32451307084112      6.93763467574377
  C   6.02748518163576     -0.89615003412566      6.89306312699503
  C   5.26573160084300      1.15988953895310      7.94824083745014
  C   6.09428177195959      0.02887774682475      7.88403914603093
  H   3.68058548117175      2.17605624384923      6.92242598321238
  H   5.36719995040483      1.85658668598525      8.76863450147155
  H   6.69698458867575     -1.74714168408986      6.90689815943364
  F   7.01059679236916     -0.13343902401694      8.87331902882623
  F   2.87193576970893     -3.07800274732586      0.71487888566131
  H   4.53237998078119     -3.28683433044397      2.65542313713805
  H   5.62699287481235     -2.53924073542409      4.78264955816264
