22
Coordinates from ORCA-job 556optt
  C   -0.89451954595497      2.57753971845493     -1.22170240118671
  C   0.33406585765486      2.81319217905551     -2.05501527391002
  C   -0.63673302272055      2.88598919820632      0.24975499621386
  C   0.10583803020831      4.16856889391696      0.52961226426440
  C   1.07415077997689      4.45331922611505     -0.39013572871966
  C   1.22371251509706      3.71734779819335     -1.62976686404451
  O   -0.92737736143956      2.08172349854848      1.10261651283602
  N   -1.43615004304811      1.23896409588415     -1.29279458635795
  C   -2.02383074496204      0.75239626824620     -2.40448795268342
  O   -2.07109530201897      1.30466514632013     -3.47358192284912
  O   -2.58075960420883     -0.48701812903430     -2.26006641071001
  H   -2.43878351667572     -0.81912862741824     -1.36790910060940
  H   -1.65975098930706      3.30737756144078     -1.53493028252115
  H   -1.57145085370570      0.82591402564627     -0.37783896096494
  N   -0.06237998160962      4.81939746257206      1.69883756424591
  C   -1.32384155926514      4.86381409802059      2.16726720353102
  O   -2.37618616369917      4.58048270974666      1.61771828808510
  O   -1.37973169390527      5.36975696187919      3.44668088090248
  H   -0.45807323057991      5.52511312483637      3.68344201088880
  H   0.39390617738354      2.31883454161905     -3.01437644418943
  H   2.07618060022080      3.95532472306821     -2.25719189068556
  H   1.74906965255924      5.27289552468194     -0.17666190153569
