33
Coordinates from ORCA-job 560optt
  C   1.95625373488107     -0.47115073589495      1.75866480334048
  C   3.11893627381051     -1.16543613334817      1.33088453156925
  C   1.96385917763127      0.06264715498465      3.02298295263661
  C   4.20690529801731     -1.29828062871490      2.14329988135483
  C   4.23437301182856     -0.74930122551254      3.46115536479653
  C   3.06691154832171     -0.05419703855058      3.89099120698059
  C   0.76048589908186     -0.33449104406307      0.84308862966140
  H   1.10329518728439      0.60309439164218      3.40392052671305
  H   3.14542175155507     -1.60088038827104      0.33598191280257
  H   5.08385953388997     -1.83307238052465      1.79296193348711
  C   2.98507820353983      0.54298952066304      5.21873586501910
  C   5.34741561364745     -0.88127144923884      4.29864811857394
  C   5.32162230951825     -0.32328464069602      5.58131957698959
  C   4.17174552184261      0.38032333640421      6.05222526993663
  O   1.97238731768984      1.15114860923339      5.61358046652426
  H   6.22707455225533     -1.41324809100220      3.95449562798062
  C   4.17358569855973      0.93205487033981      7.34685027825764
  C   6.43125224793067     -0.42830802630742      6.47430840202881
  C   5.25610703418941      0.81458859051704      8.18100060306439
  C   6.40078209777465      0.11892310903052      7.72510706426628
  H   3.27582302454397      1.45540184967504      7.65355881794218
  H   5.24091815376635      1.24538739591956      9.17452144015471
  H   7.31366970054328     -0.95995289013009      6.13319406801382
  H   7.26307462991393      0.01922006995511      8.37579282188088
  C   1.10478380014530      0.43885590703999     -0.43255214760919
  H   1.50557005864346      1.42379843137700     -0.19083583889307
  H   0.22332265313355      0.56514868609753     -1.06708019584233
  H   1.86113650130288     -0.09614598313516     -1.01201116817672
  C   0.15677706583849     -1.69596245333769      0.48813944889027
  H   0.00484593691596      0.23699386683950      1.38993393389607
  H   -0.72898713698325     -1.58223223836426     -0.14277009295578
  H   -0.12383874033042     -2.24071584050610      1.39015262685880
  H   0.88170233931669     -2.30486460212093     -0.05760673014371
