26
Coordinates from ORCA-job 562optt
  C   2.15356801006114     -1.09931666394437      1.70151467101766
  C   3.01090419492014     -2.22259209625129      1.71245817183058
  C   2.22598092621714     -0.16855800526552      2.71047749249047
  C   3.91159903562530     -2.38965586161481      2.71453421485555
  C   4.02660577131075     -1.44652682039498      3.78647675459918
  C   3.15160866769502     -0.30635039479339      3.78153768011952
  H   1.43837120623197     -0.97017326045588      0.89656976505576
  O   1.39204428692777      0.91421707686866      2.68194251000726
  C   3.22890974504435      0.67492938379432      4.86569028578357
  C   4.96912018354035     -1.65402807013763      4.79151001830895
  C   5.08557275393420     -0.73435783477265      5.84299285489700
  C   4.24456029413139      0.40778302481264      5.89526669445732
  O   2.50544592805895      1.67661584584965      4.94728524344065
  C   4.37398789147223      1.31880513501233      6.95654747208053
  C   6.03703738338320     -0.90054875307139      6.89054232217957
  C   5.29999014128356      1.13619029353532      7.95512461395734
  C   6.14126940512996      0.00331629226454      7.91164280396041
  H   3.70783501402747      2.17276443361243      6.94990515733650
  H   5.38735633270212      1.84846475085086      8.76633066308424
  H   6.68558745606869     -1.76978564101336      6.86068443606672
  H   6.87644453627452     -0.15122155921334      8.69415592825474
  H   2.94792744170252     -2.95559465173520      0.91300274233529
  O   4.76591833384978     -3.47436457132167      2.75780487858117
  H   5.60865024139366     -2.52386256668594      4.75718703543598
  H   0.85084756730304      0.83093055295878      1.89114598267328
  H   4.58623725171069     -4.02034003888809      1.98820960719065
