22
Coordinates from ORCA-job 563optt
  C   1.22561622225628     -0.04407244145169      1.83392231522529
  C   1.11177088732122     -0.29336993501046      0.45201391376342
  C   0.14796436096788      0.47824662369459      2.52769409664775
  C   -1.08926510647028      0.77592372243743      1.88232663309232
  C   -1.17672332508937      0.51183374078281      0.47898216702861
  C   -0.04848825792951     -0.02575423190634     -0.20616012144766
  H   1.96264335832878     -0.70264871404031     -0.08167494007335
  H   -0.13854998376759     -0.21701847078247     -1.26973537768242
  H   2.15619536602360     -0.26522744979353      2.33327445127584
  O   0.22711167495838      0.72981133023413      3.86026121053912
  C   -2.25429508661730      1.33550277756831      2.60902345347951
  C   -2.36174221924004      0.77567322448165     -0.23470609587830
  C   -3.41108774402568      1.56789336508828      1.79494906063729
  C   -3.45175004887760      1.29750294124015      0.44127280445012
  H   -4.27346248260763      1.97672889810396      2.30796974522823
  H   -2.39985207263529      0.56600676747351     -1.29645132866937
  H   -4.36718563486096      1.50143771529581     -0.10846813354104
  O   -2.25558959510583      1.59258820076799      3.83041281097354
  C   1.42329879168263      0.44770060401848      4.52163166715896
  H   1.26209305525652      0.72010315178692      5.56330902337334
  H   2.25980327765302      1.03258711802788      4.12108073712103
  H   1.68209456277877     -0.61613893801708      4.46275190729771
