26
Coordinates from ORCA-job 564optt
  C   2.35339406653631     -1.34520641392093      1.79227461025524
  C   3.26122498394800     -2.41560680177468      1.85302667021798
  C   2.33925902366311     -0.38453962371735      2.79245946229068
  C   4.14435561007421     -2.53743922120611      2.88582433655577
  C   4.18445679781380     -1.56454621742188      3.93027975819994
  C   3.27281274985283     -0.45769909565546      3.87936144205660
  N   1.40185040801582      0.62350325002823      2.76292990868282
  C   3.32625508284098      0.58019294999063      4.89218793339115
  C   5.10721311059616     -1.68813151251249      4.97287050705327
  C   5.17101444224961     -0.72781942343483      5.98424140985310
  C   4.30124433689956      0.39900804963762      5.95890633494706
  O   2.59175679260422      1.60442316082023      4.88001306275872
  C   4.38224008213531      1.36431227262105      6.98019222116397
  C   6.09609972856603     -0.81946159958022      7.06758704355207
  C   5.28116302932104      1.24958115613392      8.01032510727238
  C   6.14946836893880      0.13303728746921      8.04456608303763
  H   3.70039955303702      2.20320147574218      6.91588707680725
  H   5.32942008470979      2.00017248642661      8.78949990489054
  H   6.76517535323542     -1.67308567647681      7.09873158388534
  H   6.86416839211958      0.03341110546413      8.85447192481774
  H   3.25077972480250     -3.15978935669463      1.06329470699800
  H   4.83774926113519     -3.36908850540523      2.92917573797663
  H   5.78284285719150     -2.53581239656448      4.98875933131034
  H   1.63900919679920     -1.27338933472820      0.98012087547119
  H   1.01585542207090      0.84254972245435      1.86120038311287
  H   1.59027154084289      1.37873226230515      3.42030258344152
