22
Coordinates from ORCA-job 567optt
  C   1.25000618849618     -0.18803235697010      1.60434342271187
  C   1.03398471236138     -0.47074588277050      0.24796049211499
  C   0.23865735518524      0.38783230525490      2.33912138794490
  C   -0.99572008685729      0.70936418304631      1.76056095001762
  C   -1.22102810252488      0.44908960625096      0.37629739477115
  C   -0.16156914191259     -0.16650240487872     -0.36994971684298
  H   1.80526025167801     -0.97226676057685     -0.32655888957427
  C   -0.36174888992884     -0.51251372525184     -1.78376326741614
  H   2.19521876145403     -0.44501623739336      2.06708025040409
  H   0.35147794169380      0.61000591354533      3.39351117038006
  C   -2.02713587270347      1.32277724102617      2.62133319710713
  C   -2.45577813902281      0.81721221915373     -0.20253889809779
  C   -3.24483574655995      1.64156239709596      1.95612934873209
  C   -3.42443221090948      1.39579760169303      0.60276107651680
  H   -4.03042311795835      2.09699686437908      2.54712465527241
  H   -2.63972281607057      0.68228944565644     -1.25864760714790
  H   -4.37142981265521      1.67602041260138      0.14856793358924
  O   -1.81449588104190      1.53608787196899      3.83686761348894
  C   0.56862003799518     -0.48402199614471     -2.73643726421201
  H   -1.36601540907070     -0.82350023051807     -2.05788719907716
  H   1.57577648253148     -0.13827747787721     -2.53398036982822
  H   0.34472349582075     -0.79585898929091     -3.74891568085485
