24
Coordinates from ORCA-job 569optt
  C   2.16665400960562     -1.06581394270778      1.75828505529881
  C   3.01761552566974     -2.19758106273048      1.74875534728681
  C   2.27770991091485     -0.16481248179059      2.78253524944256
  C   3.93384970131383     -2.39197699693323      2.73779532858687
  C   4.07384970479725     -1.47091217208239      3.81763586557548
  C   3.20943786317294     -0.33472535301047      3.81604863397409
  Cl  0.99819008942219     -0.81585025704736      0.49487059657965
  H   1.64214229817424      0.71091043997653      2.82012083590998
  C   3.26867301304261      0.66972280808109      4.87387196169578
  C   5.00976998473870     -1.66228859472002      4.83375058742336
  C   5.10628654625502     -0.72773630062070      5.87513376384054
  C   4.26210296155674      0.42005648040413      5.91438821382886
  O   2.52561969001229      1.66459166186800      4.88458194086777
  C   4.38015839519511      1.33959310822994      6.97233649491175
  C   6.04682474832670     -0.88078313799709      6.93617704195819
  C   5.29447380957530      1.16390144428265      7.97970540862806
  C   6.13780572555180      0.03014992253150      7.95040320261607
  H   3.71394798026742      2.19351261519293      6.95371729580988
  H   5.37338364804579      1.88028642537841      8.78770186182680
  H   6.69846212575146     -1.74795428978422      6.92213113369269
  H   6.86514808518058     -0.11856369657803      8.74095997503572
  Cl  2.90411497009907     -3.36610003791902      0.46311778108436
  H   4.57032349067476     -3.26707192335403      2.70216296516800
  H   5.65955572265585     -2.52902465866977      4.82017345895775
