22
Coordinates from ORCA-job 56optt
  C   -0.99186378360919     -0.18349593985961      0.15270957818415
  C   -0.77878134271343     -1.52385552100807      0.31205809459765
  C   0.09186771807431      0.69947874325413      0.04000745402467
  C   1.39411113540239      0.23404170284850      0.08888160053739
  C   1.68296503193659     -1.16711392693216      0.23719701759852
  C   0.54186843456396     -2.10311901324268      0.34909527555372
  C   3.02635655265035     -1.57335167542667      0.31110567010269
  C   4.04953633932470     -0.59322219221992      0.27366622573253
  C   3.80693582847613      0.74266050367087      0.13896792692160
  C   2.46849145376953      1.24984577098502      0.01354670202934
  H   4.61600459365829      1.46183324209028      0.10322391841154
  O   2.22810335490149      2.45702834402411     -0.13832740248707
  H   -2.00440339372705      0.20454180154185      0.11859448763452
  H   -1.59840801744353     -2.22593124148692      0.40515224996485
  O   0.67200626196670     -3.33501394443773      0.47173937338744
  H   5.07185468897992     -0.94693536368466      0.34260662077877
  H   -0.05475824662471      1.76535649197886     -0.07175480054220
  S   3.62681263327500     -3.22373426275354      0.52161310552310
  C   3.08987710795142     -4.06101479633522     -0.98423150848554
  H   2.00957060843963     -4.18036470895556     -0.96965065448082
  H   3.57867324841921     -5.03576172276848     -0.98182914684988
  H   3.41448979232822     -3.49812229128243     -1.85823178813699
