16
Coordinates from ORCA-job 580optt
  C   -2.19648920919948      1.61752036585671      0.12084387019394
  C   -3.41254117530609      1.16284437596784      0.58647075262880
  C   -1.09110122687206      0.72560002858393     -0.15135118655349
  C   -1.35812806064702     -0.63615285874708      0.12117154312972
  C   -2.58725848079099     -1.07839371797834      0.61927634887020
  C   -3.62745746033404     -0.19639398771029      0.84996428826641
  O   0.00187423772624      1.19125356235602     -0.61837788135394
  H   -4.22365177958524      1.86757569533870      0.75315606476164
  N   -4.91981093737521     -0.62342546206666      1.33052609751627
  H   -2.73194996237969     -2.13613084900907      0.82862990616481
  N   -1.93133670022698      2.98221444081242     -0.11731572810626
  H   -0.56370291134656     -1.34764538085598     -0.07619642168037
  H   -2.67110828105589      3.44830157922673     -0.62331872665173
  H   -1.04974026867856      3.02034090166323     -0.62611866343165
  H   -5.07003250137048     -0.30161884315823      2.28096782542480
  H   -4.95253528255783     -1.63517985027991      1.35724191082082
