26
Coordinates from ORCA-job 585optt
  C   2.27858060372819     -1.23691036001107      1.81475308078454
  C   3.10250702554798     -2.38091458758991      1.89227023261086
  C   2.38290025362339     -0.28159920892190      2.79564751652465
  C   4.00011225479741     -2.53324907957070      2.91248725266016
  C   4.14961867584887     -1.54602754445716      3.93769017196868
  C   3.28936882944970     -0.40231878162265      3.86134126809462
  H   1.76555704979236      0.60872910983854      2.78854636182682
  C   3.32836804690094      0.65539655589170      4.85985223234756
  C   5.08120687264133     -1.67740591686642      4.97455301595619
  C   5.12420005314134     -0.71243484797657      5.98813576359268
  C   4.27802820980577      0.44354023488606      5.94161142364840
  O   2.59985860652437      1.66648402938895      4.79427301744270
  C   4.36144447845641      1.41029690680960      6.95692304523995
  C   5.99758959237338     -0.82486508794312      7.11658461307958
  C   5.22629388241473      1.28372372157181      8.01571529484112
  C   6.04649379878058      0.13660097444552      8.08751415039372
  H   3.70263807822661      2.26516319939172      6.86126324467699
  H   5.27413093592287      2.03995085941009      8.78919208893419
  H   6.61333569644592     -1.70827744603944      7.23264254214566
  H   6.71712234266555      0.00694859947846      8.93028835766610
  H   3.01607375770474     -3.15783696087311      1.14016518706007
  H   4.58307350823297     -3.44494086060620      2.95713819296544
  N   5.95041161700556     -2.82105173220498      5.02599883977562
  H   1.57180621672893     -1.12567201901065      1.00202696355779
  H   6.18157969314522     -3.12259901512061      4.08742791874375
  H   6.82773992009475     -2.56918074229797      5.46411822346201
