32
Coordinates from ORCA-job 587optt
  C   2.28105891970788     -1.40786631581468      1.52959013882278
  C   3.16598766842054     -2.51045414328272      1.57420326730416
  C   2.35153985262457     -0.47439295206964      2.53770965535975
  C   4.06673796636585     -2.64797331140279      2.59428533561588
  C   4.15175122978182     -1.69463089005707      3.64628291894689
  C   3.26073550418831     -0.57981480552126      3.59711110495328
  H   1.56397817117785     -1.29135018536225      0.73023785321929
  H   1.69329755194354      0.38611201781026      2.54173970909857
  C   3.27302709697783      0.45568085377492      4.62514844230278
  C   5.06942103110762     -1.83146256766456      4.69584236847798
  C   5.10936055759626     -0.86472832309182      5.70495629643066
  C   4.24259363936860      0.26526466787386      5.69771086853497
  O   2.50597287463004      1.43533356113169      4.58776025568861
  C   4.30763522822163      1.22371756077783      6.72935283365463
  C   6.02954808248006     -0.96121748800776      6.80400301101368
  C   5.19814617142077      1.09645923548872      7.75752465849264
  C   6.07489938001814     -0.01814689979743      7.79337939821289
  H   3.62240304006748      2.05953880537484      6.66693322236458
  H   5.24694783872925      1.83372465170031      8.54908463275362
  O   6.84289165525711     -2.06563881852013      6.77025788295064
  H   6.77561606526315     -0.10839683074819      8.61210646141044
  O   3.17596718457900     -3.49510807320883      0.61031511617369
  H   4.72731339631701     -3.50700804761902      2.59372867374806
  H   5.73971491342313     -2.67787892905702      4.72483398467616
  C   2.25231389126581     -3.38899233321808     -0.43763407514050
  H   2.41544625208892     -4.25263296922827     -1.08051547324523
  H   2.40370868394396     -2.47490009927726     -1.02096152757741
  H   1.22064656455280     -3.40449297627300     -0.07127743215962
  C   7.77307157193189     -2.21227032321135      7.80306637633290
  H   8.32165793589776     -3.13047341288965      7.59979999343914
  H   7.28172298000273     -2.29365467826808      8.77920234089255
  H   8.47492710064854     -1.37126598034150      7.83448170725140
