32
Coordinates from ORCA-job 588optt
  C   1.98748363760633     -0.94847773624223      1.68299921903551
  C   2.92449835980276     -1.99159515787387      1.46046029536048
  C   2.13256811140280     -0.09896795866525      2.74552887303889
  C   3.95639848826684     -2.19280128936750      2.35968458721950
  C   4.11542984713151     -1.31951380561630      3.49905695412830
  C   3.18452569140421     -0.24714527985496      3.65902457331242
  H   1.17838139146593     -0.81498398913391      0.97444547894681
  H   1.44230298232111      0.71775773293746      2.91794974063877
  C   2.72481777424360     -2.74820570246334      0.20492374205833
  C   3.27652355166723      0.69736950435405      4.76868183966487
  C   5.13557540241591     -1.50673901948632      4.43809715934140
  C   5.27476098824570     -0.61940274480818      5.51638797215626
  C   4.38032320109203      0.47345033650548      5.69549227111930
  O   2.46538540832803      1.62827264433123      4.91497693102103
  H   5.81529846237510     -2.34407334976078      4.36272826107566
  C   4.54944350703969      1.34838334406925      6.78372263566130
  C   6.31398227240704     -0.77315643776602      6.48136666322983
  C   5.56282563766949      1.17769215536589      7.69271597487075
  C   6.45426007552652      0.09268763286048      7.52907463505001
  H   3.84015749559396      2.16264568361070      6.87053301973442
  H   5.68274282893269      1.85978607266222      8.52521348935822
  H   7.00350341610427     -1.60251131345345      6.36333392791871
  H   7.25786914170429     -0.05391252398874      8.24264313716988
  C   3.65012008411038     -3.15855348062583     -0.65425134460322
  H   1.68089288473250     -2.90106863728197     -0.06089750991157
  H   4.70586503645559     -3.01568673341741     -0.46495506887090
  H   3.37115385598942     -3.65811641608560     -1.57383152095317
  C   4.93687348526340     -3.29098214212697      2.22604953843708
  C   4.64597116611686     -4.58454693075747      2.19060417848786
  H   5.98346221862432     -2.99156057492626      2.21338947972167
  H   3.61887659533796     -4.92790235291430      2.23158283700902
  H   5.42183700062235     -5.33574153008005      2.10468802957244
