27
Coordinates from ORCA-job 589optt
  C   0.75405527986733      0.46935079923720      2.06209752692473
  C   0.61952233922471     -0.17011932748243      0.81090553992904
  C   -0.32251676120247      1.13146978622081      2.59978748936286
  C   -1.56022264776709      1.19014859105700      1.93351051904073
  C   -1.70241721800799      0.54948206126764      0.67235067415586
  C   -0.57311263611619     -0.12916907660748      0.13981804288647
  H   1.46460622500649     -0.69587227755314      0.37984266719721
  H   -0.67514672498766     -0.62116133750341     -0.82244940222158
  H   1.69998077374876      0.43423362504657      2.58952756621636
  H   -0.26188080199953      1.63455706988190      3.55739571318898
  C   -2.67286816551716      1.91042830121924      2.56099879606427
  C   -2.93913276973473      0.60936870765212     -0.00273568714507
  C   -3.89779005172933      1.93196848539968      1.82154316919776
  C   -3.98779031584722      1.29385710682623      0.58480899538264
  C   -5.05486102937740      2.65880872995296      2.46620585851774
  H   -3.05335481134699      0.12873642616346     -0.96691855649317
  H   -4.93026103246243      1.33700581058449      0.04616952026104
  O   -2.53891747276948      2.47151234927392      3.67951501663556
  C   -6.17824086763662      3.02960051852059      1.50333140384986
  H   -5.80114318513321      3.58662074391412      0.64299817040486
  H   -6.92670154326783      3.64313798644245      2.01145984376947
  H   -6.68844240635886      2.13798452431263      1.12791577239984
  C   -5.61436357768958      1.84969203463521      3.64203559403795
  H   -4.63912412769293      3.57891265770476      2.89077319589880
  H   -6.39338073304068      2.40704694423666      4.17297248611841
  H   -4.80966089022546      1.61803371260738      4.33893984877276
  H   -6.04960484793636      0.91446504698941      3.27756023564657
