32
Coordinates from ORCA-job 590optt
  C   2.04979036456816     -0.78897347228394      1.64771007872483
  C   2.95534091008760     -1.87982099123766      1.55846593047972
  C   2.20065446249314      0.07421848067073      2.71731901846965
  C   3.94016469140360     -2.07311525529600      2.48138032425771
  C   4.11373142769869     -1.18662580768374      3.58587309634672
  C   3.19889546617428     -0.09492501614275      3.68076102368865
  C   1.01995454677052     -0.63438639493394      0.62276357340625
  H   1.54161297658429      0.92378903553369      2.85329721537195
  H   2.85312802345786     -2.57327469179194      0.72892407665755
  H   4.61781849189534     -2.91480303993111      2.38672889177784
  C   3.28107478955600      0.85570036221176      4.78884631186139
  C   5.12288395334612     -1.37361324441972      4.53485431967959
  C   5.26655665657790     -0.47704081434795      5.60317307182332
  C   4.35680494556531      0.61523332124766      5.75274989562033
  O   2.48864330613343      1.80240374230021      4.90698205504240
  H   5.76846939098275     -2.23615986920057      4.44214166736378
  C   4.46905890267558      1.48543334108924      6.84496020577094
  C   6.30114686245167     -0.61281298939887      6.59547014210189
  C   5.45166732947087      1.32544706276079      7.79312877454270
  C   6.37088623036810      0.27345600292426      7.64717915014810
  H   3.74849088803188      2.29203376731652      6.90339092906048
  H   5.53819526341772      2.01097721462666      8.62657058146465
  C   7.31100007778801     -1.67092505029519      6.46286166663078
  H   7.18295459104798      0.16964927556841      8.35873434525757
  C   0.09358834586146      0.32097127957555      0.52141679297853
  H   1.02985544739792     -1.40650663988012     -0.14456849830629
  H   0.01543573952620      1.12649770787944      1.24078874167058
  H   -0.61649740988419      0.31822478398291     -0.29487438531932
  C   7.87323619504488     -2.34320644458522      7.46535167166109
  H   7.61914286827477     -1.90792276453222      5.44814323095237
  H   7.57038433640064     -2.18323230850296      8.49374781148793
  H   8.64513992883135     -3.08039058322390      7.28386828932611
