26
Coordinates from ORCA-job 593optt
  C   1.32603870070582      0.65401982140368      1.56205170913850
  C   1.05377402324419     -0.11698390318950      0.41237446993012
  C   0.28380224661387      1.20692201230672      2.26565710697189
  C   -1.05307336175896      1.02407513459141      1.86864235313952
  C   -1.33482278723689      0.24740261221143      0.71183489943350
  C   -0.23851574319181     -0.31198176853636      0.00296351391283
  H   1.87093378289765     -0.55666645572874     -0.14903393954597
  H   -0.44694280919809     -0.90568028717984     -0.88153533699298
  H   2.34988566209447      0.80555635052678      1.88283799706151
  H   0.44902899825443      1.80554565009957      3.15340856955553
  C   -2.11901283602898      1.64415526951475      2.66829603387743
  C   -2.67443881053456      0.05673826523243      0.30709657894905
  C   -3.44487024511207      1.40352001455677      2.19619605356704
  C   -3.67929855134116      0.63509986438201      1.05565465455696
  N   -4.58327300899487      1.94978933794899      2.89098694049829
  H   -2.89596205208401     -0.53370369998540     -0.57359474143502
  H   -4.71782538813223      0.50320233049415      0.76686330303287
  O   -1.85292709484504      2.33023318101478      3.68983085657311
  C   -4.59651552093803      3.40580569837585      2.89627514741914
  C   -4.72417702360436      1.42381025631172      4.24137942231128
  H   -4.76166553456658      0.33441685809771      4.19660253745144
  H   -5.66618256886822      1.78268093778719      4.66902860455332
  H   -3.89526783375980      1.72255218235434      4.89521939680202
  H   -4.53632784164454      3.76558994625588      1.86811363140290
  H   -3.76172302554157      3.82942442627161      3.46828787991975
  H   -5.54121137642842      3.75357596488195      3.32719235791576
