44
Coordinates from ORCA-job 596optt
  C   2.42819150576673     -1.47810140358875      2.17601622516606
  C   3.17112175116447     -2.67924495692715      2.34708891006815
  C   2.68938372704808     -0.43993712008886      3.04767887736018
  C   4.09897837322983     -2.80639831527040      3.33654082279083
  C   4.38095751610976     -1.74341651321679      4.24809954176455
  C   3.64104109209180     -0.53466130205887      4.07120786193057
  H   2.17887893991526      0.51182810548817      2.95564234913272
  C   3.85273820869591      0.61896441115173      4.94314297924296
  C   5.32483060977034     -1.86859009725457      5.26741543119477
  C   5.55740237366234     -0.79510909376034      6.13905286513621
  C   4.84369274159319      0.43045840308394      5.99962176411404
  O   3.23033041306403      1.68406569490367      4.80116275304812
  C   5.09407844623634      1.48289122147922      6.89554051707783
  C   6.50472266183942     -0.88153639786175      7.19821898209644
  C   6.00657741402026      1.36640183983224      7.91181933914199
  C   6.73314523591588      0.15664066790487      8.06681290103471
  H   4.53601986517625      2.39872916445033      6.74278996398833
  H   6.20290970439402      2.19935577646623      8.57536275705129
  H   7.03473984246238     -1.81930862735098      7.33035139333845
  C   7.71922203757123      0.01987183685196      9.16323961915050
  H   2.97090993701531     -3.52383117242726      1.69728524842821
  H   4.63696290556949     -3.74066514421023      3.45681940760195
  H   5.87651409850502     -2.79367241500951      5.38731573659481
  C   1.42126155037885     -1.35806549571949      1.10761729087735
  C   1.55261808076743     -2.04910221856239     -0.10347874354174
  C   0.28917601358885     -0.54763038144133      1.26477105676242
  C   -0.65827455526197     -0.42970106695485      0.26069434662579
  C   0.60097262432473     -1.93767388341078     -1.10645645344214
  C   -0.51265599601599     -1.12617220310990     -0.93360304420233
  H   -1.52413457807939      0.20249806759409      0.41646465540409
  H   -1.25544902004107     -1.03752310352710     -1.71609827227381
  H   2.42912301708310     -2.66303022273005     -0.26845255966211
  H   0.73641050301350     -2.48051841213516     -2.03434836656966
  H   0.14854644779972     -0.02015418478367      2.19948175998031
  C   8.91996949480743     -0.67011734867935      8.97688993389084
  C   7.47688025086129      0.58000652451501     10.42034634620127
  C   8.39494146807686      0.45056511713408     11.45225046055764
  C   9.83897676328452     -0.80199724813661     10.00730139307553
  C   9.58197906119441     -0.24208145114676     11.25232484624396
  H   10.76536529096220     -1.33603579454971      9.83445405683602
  H   10.29984133109384     -0.34222664812540     12.05653708133550
  H   9.13728621466164     -1.08745366431604      8.00166099325335
  H   6.54476856721471      1.10451698031930     10.58942844021179
  H   8.17884806946774      0.88661207517921     12.41998853198196
