24
Coordinates from ORCA-job 597optt
  C   2.12372868691292     -1.05245599571426      1.72103105288531
  C   2.97542531385572     -2.17021400787214      1.72418969633659
  C   2.24449638590668     -0.15190258668185      2.74856259554354
  C   3.89462599075230     -2.36521800404901      2.70543899612798
  C   4.05052847436889     -1.45857077545660      3.78796893922841
  C   3.18213989395141     -0.32343005472506      3.78098076068375
  H   1.40769489086311     -0.93922759786588      0.91894461804015
  H   1.61593927364858      0.72799440313324      2.80018869165437
  C   3.25108013402421      0.67338904360180      4.84401509058847
  C   4.99036772842322     -1.66401974517040      4.79685734031194
  C   5.08637345171768     -0.73128202466995      5.84097833518720
  C   4.24505530015141      0.41781678213712      5.88423832631630
  O   2.51235945048952      1.67242679682901      4.86324533405680
  C   4.36466154633204      1.33256985869562      6.94565042549793
  C   6.02531839524142     -0.89126940362951      6.90205695633078
  C   5.27765333414285      1.15071423156502      7.95374664239644
  C   6.11775941715408      0.01511245441849      7.92064972722833
  H   3.70047458053687      2.18815570331669      6.92979751038956
  H   5.35733517107861      1.86368478190619      8.76480078636146
  H   6.67408413457674     -1.76046822566949      6.88457634344538
  H   6.84366600625248     -0.13940640067599      8.71151745629542
  F   2.87538364147394     -3.07418321429041      0.72644525835461
  F   4.68506538136339     -3.45718013022863      2.65327676700497
  H   5.63491341678184     -2.53154588890401      4.77719234973423
