26
Coordinates from ORCA-job 599optt
  C   3.23313352261354     -0.53919560921317      2.86916995924146
  C   3.95280428574804     -1.73575146291833      2.60999145353364
  C   3.56855216856831      0.24579221992852      3.92861536841188
  C   4.65333910101879     -0.10895920732161      4.77927532480972
  C   5.40756306616122     -1.29518125478036      4.51077088519927
  C   5.00361017545267     -2.11401356673252      3.39772554206276
  H   2.40818681536292     -0.26846185577464      2.22169481936429
  H   3.66231322701420     -2.36654635816575      1.77609703699657
  H   3.01992943081976      1.15444332309545      4.14694502564535
  N   5.73588060066423     -3.27978616987978      3.11526379864522
  C   5.01645207548757      0.67644582151058      5.87994538870708
  C   6.07271833285140      0.35305358199089      6.70679601222552
  C   6.85007450215514     -0.82541711583901      6.43424376769408
  C   6.48745521911812     -1.61329370908208      5.33191261689047
  H   4.46296420251429      1.57964002188738      6.11331649460616
  H   7.10291759325765     -2.47992452367183      5.11686039235226
  C   6.38308498274361      1.24504203331466      7.85599142773071
  C   7.94401912854080     -1.14267601964213      7.27493976587102
  C   7.49392248366885      0.83661649277533      8.64044600353111
  C   8.22646717496024     -0.31066204865256      8.34033849501685
  O   5.69260966771823      2.26365569771152      8.07336235752101
  H   7.75911638668072      1.45482904244203      9.48924826770139
  H   8.53808945907784     -2.02601445998624      7.07605690136546
  H   9.06677970926925     -0.56266060988823      8.98235448336391
  H   5.22673135504467     -3.92458861998983      2.52919828436002
  H   6.07297533348776     -3.74718564311826      3.94455012715263
