25
Coordinates from ORCA-job 607optt
  C   3.22125484824465     -0.66035451330658      2.85830744317077
  C   3.96476474942317     -1.84809813793046      2.62811086263154
  C   3.56254022079081      0.15929275513229      3.89706188212902
  C   4.64610071012093     -0.13282052649660      4.76625510979167
  C   5.38849050014662     -1.33813264580802      4.54091554696049
  C   5.00536771671160     -2.16985483768770      3.44166239334057
  H   2.38561444362806     -0.40925506609624      2.21807337454372
  H   3.69615454644791     -2.49804769476676      1.80372833908176
  H   2.95464213188266      1.04713331358240      4.03960541424484
  H   5.57395038230129     -3.07795346115942      3.27334208589723
  C   5.02586652434008      0.70383856393217      5.85155308016009
  C   6.07297272510013      0.37391017757942      6.71404128015421
  C   6.81076109263436     -0.84501841804623      6.45687110191635
  C   6.44166450598563     -1.66152506669317      5.37536198856415
  O   4.34904894986139      1.86103324300576      6.05131425765213
  H   7.00358386696416     -2.57133490680253      5.19241684573700
  C   6.44054580274603      1.24174262205417      7.87585208361647
  C   7.89499636304539     -1.19997459025678      7.28393214756288
  C   7.56822091334857      0.79231974857596      8.63262844760849
  C   8.24635943920035     -0.37512474894246      8.33876797150937
  O   5.81359894809194      2.27284094990588      8.17096253091145
  H   7.85875341404349      1.41397543069530      9.47018881764001
  H   8.43925458498224     -2.11255969198940      7.07681850023669
  H   9.08900825669834     -0.65897294129627      8.96423046092405
  H   3.71640436325996      1.97475044281529      5.33907803401481
