33
Coordinates from ORCA-job 609optt
  C   1.37990122825794     -0.76739640453283      2.09045328292339
  C   2.11874102523246     -1.96034687023768      1.95738787014171
  C   1.82197022408090      0.16744840735426      2.98991336107515
  C   3.25534273495386     -2.17535844506515      2.68701609113972
  C   3.76740911955645     -1.21665896227820      3.62442953075434
  C   2.98055502108554     -0.02719104644244      3.76224266108450
  H   0.48343600499898     -0.60483083927190      1.50542775694706
  H   1.29276627968325      1.09922837676836      3.14828558858237
  H   1.78042524542226     -2.72980314023949      1.27140189797313
  H   3.75620609845361     -3.12313723885594      2.55264423235246
  C   3.33999935969022      1.02507345060181      4.70053756262081
  C   4.94674006077832     -1.41699266557317      4.38454186435503
  C   5.27204018903832     -0.45129822355868      5.36692446962218
  C   4.50423272036328      0.74582685700910      5.52757812161889
  O   2.68857616657279      2.08096222158067      4.80134365135991
  C   5.82332269316894     -2.63272150322286      4.12773577491886
  C   4.84934991922821      1.70100501395471      6.49966973822785
  C   6.36621612870685     -0.59825339205514      6.28233554587548
  C   5.91553793268823      1.52833290060283      7.34364305703477
  C   6.67229484015648      0.34524027919531      7.22402532586382
  H   4.22119808008554      2.58217053953925      6.54790708884339
  H   6.16736814827213      2.27142249174998      8.08983962325942
  H   6.96899280024534     -1.49153346146784      6.25371762427557
  H   7.50868892650241      0.17079553940290      7.89265735970147
  C   5.75061952718293     -3.69971873898807      5.23030910135902
  H   6.09781322571752     -3.33022209129790      6.19473121966874
  H   6.35244883481336     -4.57537880411061      4.96697808188332
  H   4.71566281916987     -4.02142189489000      5.36058472594802
  C   7.27008189483652     -2.29765460759281      3.72942201973070
  H   5.42947592925618     -3.12080512583309      3.23936235216401
  H   7.80098155385779     -3.20985901429796      3.44031730569945
  H   7.84212293174302     -1.81634945461307      4.51962957928448
  H   7.26528233620007     -1.62014415333425      2.87412653371052
