19
Coordinates from ORCA-job 612optt
  C   1.30365707326595     -0.04385370691229      1.96789300504462
  C   1.21720667854142     -0.30275770947036      0.58754225772070
  C   0.20832897424967      0.47621099079784      2.62120079409884
  C   -0.98813970545281      0.75367055436331      1.94713731439343
  C   -1.08357625651415      0.49528163550155      0.55302571152839
  C   0.05790739591610     -0.04046842229444     -0.09778617378052
  H   2.07180754613884     -0.71279322036586      0.06000785667331
  H   -0.00143033260943     -0.24303855832382     -1.16261287818248
  H   2.22101940322837     -0.25264586973809      2.50502606050098
  H   0.22651828283889      0.69197290215319      3.68299851953095
  C   -2.12843938511680      1.31034053665795      2.70699295467588
  C   -2.28526967464034      0.77088496417726     -0.13777742601864
  C   -3.29881583200351      1.55850793516017      1.93966665228385
  C   -3.34840709101420      1.29140519334846      0.57923536665151
  H   -4.17005958383515      1.96642358946373      2.43497570443381
  H   -2.36678736012765      0.57662955167439     -1.20237902554276
  O   -4.53994850894800      1.57364312843234     -0.06100208025298
  O   -2.03595374695625      1.53453946930644      3.93483485600320
  H   -4.43053787696094      1.34072703606820     -0.98703946976210
