16
Coordinates from ORCA-job 619optt
  C   -1.07523834883047      1.84127000883724     -0.09947051779975
  C   -1.61883914469775      0.58244728816736      0.06188565640407
  C   0.34973464486284      2.05204341741405     -0.18958310578058
  C   1.13996208983241      0.85509524075062     -0.09744458401243
  C   0.55916466444373     -0.38615646768213      0.06367978128578
  C   -0.82170961379103     -0.56195567065956      0.14741934561951
  H   -1.28169738077707     -1.53211774032704      0.27345048198771
  O   -2.98223867515379      0.35318742048273      0.15044119232491
  O   0.84721895252673      3.20032706254749     -0.33707001546481
  H   2.21649943527715      0.96434464561476     -0.15975621213991
  H   1.19846921326188     -1.26256926756510      0.12777954206814
  C   -3.82338617109469      1.46734028079960      0.07085706431788
  H   -3.62850962154715      2.18018354961857      0.87931291415077
  H   -4.84402444143463      1.09449272087923      0.15813886417954
  H   -3.71081488348364      1.99244020020348     -0.88377962596513
  H   -1.68946071939454      2.72897731091866     -0.16587078117568
