44
Coordinates from ORCA-job 624optt
  C   2.09628113216456     -0.67727076684569      2.43264635190545
  C   3.03910899983351     -1.72470406341863      2.41787474329799
  C   2.12670455164346      0.28545151368285      3.42005613787792
  C   4.00789948564943     -1.78640701257773      3.37292429269870
  C   4.07714211935613     -0.82729763210374      4.42530270091430
  C   3.09366818500014      0.21482676674343      4.46355888311912
  C   1.15859220197561      1.40598108685905      3.25739418156471
  C   3.06329168029753      1.13725566635511      5.60310603031363
  C   5.08229481702752     -0.92946057577911      5.39600049054996
  C   5.14561597231154     -0.01229437144988      6.44215971222097
  C   4.16327318023920      1.01124433482473      6.56114386660704
  O   2.16074072835905      1.97088413563035      5.77667628292267
  C   4.22366613031040      1.91515600665827      7.62979334473232
  C   6.16132976072088     -0.05495102568261      7.44452619528512
  C   5.21765822649877      1.86908940409330      8.58688047129458
  C   6.19875439161969      0.84647999286850      8.46548845828675
  H   3.45612338147696      2.67973206741042      7.65448069465434
  C   5.26957809655825      2.83867804502849      9.69495573893095
  H   6.90902242098923     -0.83860901879156      7.38490164942198
  H   6.97320527629947      0.76212243700854      9.21962968991991
  H   3.00149335120293     -2.46794690936063      1.62953010612007
  H   4.74889528864584     -2.57816048200323      3.35603780966905
  H   5.80992195812005     -1.72975374002336      5.32843891469143
  H   1.36553654884108     -0.59521712839621      1.63781752179359
  C   -0.19866380662990      1.14576486424394      3.09479773725766
  C   1.59923977661560      2.72533504203833      3.14263842342078
  C   -1.09879943713122      2.17350310270465      2.83311083905304
  C   0.70940647980970      3.74799552131248      2.86923288317237
  C   -0.64809396643825      3.47831215044046      2.71514173424519
  H   -2.15335419513764      1.94998542970416      2.72455800076849
  H   -1.34487322667493      4.28196762349859      2.51102507174028
  H   -0.55143655523953      0.12608430942006      3.19204335811774
  H   2.65034676601803      2.93747675333154      3.28881407091699
  H   1.07126770058256      4.76552452585589      2.78656976745564
  C   6.48656032851161      3.23160085403326     10.26582644681083
  C   4.10100096825026      3.40495297510290     10.22107503813536
  C   4.14817247878981      4.32077250444944     11.25969264474762
  C   6.53441919785263      4.14247892485047     11.31070427555679
  C   5.36545256820024      4.69571365381052     11.81653161992012
  H   3.22538442525787      4.73702110682510     11.64545642597368
  H   5.40152888187481      5.40812612035791     12.63085318371471
  H   3.14384600041034      3.10299343234403      9.81560817859743
  H   7.41037937537936      2.83418537808937      9.86457947648546
  H   7.49322835455724      4.43073699685623     11.72492655511685
