25
Coordinates from ORCA-job 625optt
  C   2.11196762793917     -1.03574801743787      1.68523338828799
  C   2.99536063641739     -2.13773366682439      1.63264642705200
  C   2.21352256705670     -0.15156591851831      2.73052355846987
  C   3.93659975524974     -2.33129823016365      2.60464180308023
  C   4.05946725867475     -1.43064693187706      3.70592867170977
  C   3.16685141775364     -0.31444996162555      3.75001559787465
  H   1.37015244088480     -0.89435443659184      0.90912940784337
  H   1.56031332991210      0.70906068572318      2.81143320140203
  C   3.21586504676013      0.66145533381678      4.83227278450122
  C   5.00633208692759     -1.61828622898217      4.71566896926843
  C   5.10313061082345     -0.71752297416449      5.77910425941841
  C   4.22719352799554      0.41019973301553      5.85207870586861
  O   2.44610115373351      1.63940964068724      4.88408414181773
  C   4.33516112316997      1.29976170129914      6.93480357426400
  C   6.06029916419533     -0.87950277746686      6.82609652355104
  C   5.26133537396161      1.11882680145465      7.93169084262912
  C   6.13265044127564      0.00795060748087      7.86307091161657
  H   3.64793999997465      2.13725890644262      6.94377787047183
  H   5.32909840798093      1.81452710388851      8.75877891777742
  H   6.73938837907585     -1.72049670327908      6.77241438073281
  H   6.87307489880679     -0.14079849570004      8.64187722838571
  H   2.92956578880128     -2.83804072091706      0.80672615993146
  H   4.61981953245706     -3.16891854214433      2.54948530965283
  O   5.88392641283657     -2.70952749696943      4.65006015332398
  H   5.46389301733564     -3.46368941114635      5.07671721106874
