21
Coordinates from ORCA-job 626optt
  C   1.26401199657312     -0.00818701373602      2.07248613768927
  C   1.19405750685735     -0.27284879264224      0.69057360620939
  C   0.16562325737942      0.50983529120827      2.71244283574213
  C   -1.02393873606014      0.78057347261582      2.01658426177524
  C   -1.10099890594487      0.51512299417151      0.61997818533353
  C   0.05274981263016     -0.02473850999590     -0.03082159382066
  H   2.06033527454688     -0.68300490695203      0.17966014853222
  C   0.00447994580138     -0.31654062111109     -1.50463817076670
  H   2.17809885556390     -0.21429680762764      2.61678527640249
  H   0.16953483326462      0.73003640627043      3.77308596213298
  C   -2.16460074123379      1.33618517160165      2.76893913682944
  C   -2.30091419692501      0.78862914489121     -0.07677165150795
  C   -3.33086727753558      1.58017092026362      1.98820046610966
  C   -3.37433713464117      1.31051312219659      0.62719097640591
  H   -4.19408929032874      1.98883483988440      2.50022046347486
  H   -2.38352077014188      0.59530961076653     -1.13725378919604
  H   -4.29507823631006      1.51938285486144      0.08808085538427
  O   -2.08418894583787      1.56483214394187      3.99875886200023
  H   0.95652645660767     -0.72027374967149     -1.85148303980730
  H   -0.21682887868069      0.58713605978650     -2.07975422245459
  H   -0.78257482558464     -1.03891163072339     -1.73948470646841
