26
Coordinates from ORCA-job 642optt
  C   1.14233559486532     -0.11306191935116      1.81792090064255
  C   0.97505845676083     -0.56712218137925      0.49738402521802
  C   0.13049148992755      0.57808038625727      2.46888286070290
  C   -1.08757079054421      0.89850699174082      1.77553764021786
  C   -1.25507449621179      0.37974764177877      0.45115792193863
  C   -0.19856947156407     -0.35490847136046     -0.15843701812748
  H   1.78074790916014     -1.11289941111548      0.01799542671492
  H   -0.34588390755461     -0.72199214514139     -1.16818835137267
  H   2.05796374286037     -0.35275174318071      2.33851999760217
  N   0.31795074736070      0.96282244912026      3.80569324900035
  C   -2.11587234497910      1.81449792997887      2.32553809747554
  C   -2.43570338661962      0.61544989128250     -0.28280311321360
  C   -3.28808531695002      1.96937611438447      1.52278590012889
  C   -3.43301093425913      1.39234710586786      0.27448736207411
  H   -4.05781499891284      2.61233958885806      1.93277639739959
  H   -2.53160586188675      0.19760288994213     -1.27745208507243
  H   -4.34542251402361      1.57202543933072     -0.28811711977772
  O   -1.98891025527643      2.43399639991336      3.40869531451289
  C   1.64990859436723      0.95158245856609      4.34014022895074
  C   -0.65334627668062      0.50088846414096      4.77585015444927
  H   2.33829435280424      1.45330925965021      3.65979647884470
  H   2.03755287936101     -0.06419370561708      4.54090150672506
  H   1.64363570380338      1.49289252737232      5.28926461472968
  H   -1.61618717858792      0.34207467037518      4.30630727020088
  H   -0.78902137877949      1.24990851673610      5.55802473945612
  H   -0.31099035844055     -0.44450914815046      5.23228760057883
