32
Coordinates from ORCA-job 644optt
  C   2.50676449674342     -0.96829432506428      2.33496725933333
  C   3.31031940814617     -2.12382921545772      2.23948788024496
  C   2.68163922868032     -0.11244370350392      3.39213062640637
  C   4.25669563273505     -2.38159114508133      3.19867214202866
  C   4.47047903048687     -1.52068747252968      4.30732315537166
  C   3.64480973797052     -0.36127282984865      4.38222971570723
  O   1.53446281267212     -0.64181705257798      1.40613857916023
  H   2.07473776819695      0.77965418466619      3.48398301021658
  C   3.78067568367974      0.59194846528629      5.48430346901296
  C   5.44384154096449     -1.78853404829187      5.28586429895484
  C   5.61596763400801     -0.90843507805898      6.35311006899154
  C   4.80622984150314      0.26882324952917      6.46553376932079
  O   3.06596589705486      1.60690066222207      5.56909800248849
  C   5.00452999438611      1.13612664638522      7.54821538716918
  C   6.58965634079748     -1.12965347291361      7.37105396984040
  C   5.95005868078870      0.90569405435736      8.51879081962266
  C   6.75036847588963     -0.25863766143516      8.41068802501450
  H   4.37070518336506      2.01380994305720      7.59226259241268
  H   6.07039820018903      1.60057306760970      9.33670078677070
  H   7.22307814089759     -2.00791046691161      7.32602803003021
  O   7.72347969056699     -0.57630630683853      9.33416002773237
  H   3.19325714040092     -2.81651449006390      1.41663069130776
  H   4.86819643166350     -3.27358480262168      3.11334968588326
  H   6.05883821140912     -2.67739018608693      5.20652789466298
  C   1.36033017285700     -1.51365978042789      0.32806995329083
  H   0.56450831737941     -1.09502317985977     -0.28619999086362
  H   1.06541979766877     -2.51671239039780      0.65777007338400
  H   2.26996750257518     -1.60016945891618     -0.27763072338792
  C   7.90746553336157      0.29842713798277     10.41293265960471
  H   8.70728987553253     -0.12382017684413     11.01939720848932
  H   7.00287876081092      0.38516394919496     11.02358640596375
  H   8.20191483661866      1.29859588344068     10.07876452583446
