26
Coordinates from ORCA-job 647optt
  C   0.08738177997310     -1.61156501752794      2.53919964970994
  C   0.81975240426977     -0.43566441674709      2.82141472849001
  C   -1.20136914028463     -1.55086793157100      2.09782758578625
  C   -1.84889258326950     -0.29789752016639      1.87012077818928
  C   -1.09125761332106      0.89147322313968      2.11744696882543
  C   0.23014176763725      0.79687443875621      2.62703702439082
  H   0.56081168569477     -2.57514674522964      2.69362683507607
  H   -1.75755972106086     -2.46008215362172      1.89779273820246
  C   -3.16172385007823     -0.22308149068362      1.39680016085643
  C   -1.71671163499062      2.13002351513273      1.80077132928428
  C   -3.82146022763187      1.00461914762996      1.12021164973958
  C   -2.99284561710242      2.18656767976912      1.33503423553870
  O   -5.00275509094559      1.10685725603468      0.70542510851868
  H   -1.14119502568325      3.04234983347622      1.91047537908126
  H   -3.44776344502118      3.13931774617101      1.08435902640244
  H   -3.71238116425808     -1.14034651965699      1.21570091971171
  H   2.76860116236132      2.93933294259582      3.03588116413519
  C   2.35809079762851      1.92766220505776      2.99400300655897
  H   2.73617036092371      1.43103174853169      2.10114744585822
  H   2.72769211912605      1.38206164820608      3.87890394830145
  H   -0.68431343060462      2.71473055873334      4.09083481194783
  N   0.91867332669835      2.01149672080279      2.93873684875275
  C   0.40140742402712      2.67547675690569      4.12440562973547
  H   0.79076357199690      3.69581563801922      4.17294215151868
  H   0.70091372285756      2.14540170042392      5.04382814238333
  H   1.82748842105754     -0.51554096418153      3.20425273300468
