28
Coordinates from ORCA-job 652optt
  C   2.34119283082172     -1.33862924525333      1.83235021283943
  C   3.19980847683185     -2.45069772863172      1.92388752359759
  C   2.40295348052832     -0.32427770499619      2.77359725301794
  C   4.10217016567777     -2.55125345123778      2.94638194115644
  C   4.18479905591999     -1.54657802132454      3.95475963281458
  C   3.31657619624249     -0.40653449444490      3.87639616785363
  N   1.60590883681552      0.78655756714687      2.63367944079306
  C   3.34335360971742      0.61152303596177      4.90465314647888
  C   5.09822044602897     -1.67489913137448      5.00395390782443
  C   5.17641232299037     -0.70323680574776      6.00558146467400
  C   4.31697752498091      0.43063792161590      5.97527775877223
  O   2.57850941850202      1.61439152600903      4.91650835191942
  C   4.40006240780923      1.39655614542284      6.99362621907965
  C   6.09611195170086     -0.79922356599266      7.09200664298505
  C   5.29624920859957      1.27906837010053      8.02747116022459
  C   6.15418353056925      0.15639570435323      8.06719006018176
  H   3.72358521176750      2.23951081363234      6.92513510921466
  H   5.34898244485571      2.03266511625428      8.80341217548693
  H   6.75712497598776     -1.65890705862062      7.12940830567729
  H   6.86548489595437      0.05244802245751      8.87962513471580
  N   3.07505102596038     -3.47365109492643      0.95602763741770
  H   4.76359069348097     -3.40917509579202      3.00830828561143
  H   5.74734933390054     -2.54236600246289      5.04348690732309
  H   1.63587126517562     -1.26691777273553      1.01087579336488
  H   0.77216263388815      0.67387157388774      2.08431567749028
  H   1.58943807438677      1.38637771911162      3.45816684406655
  H   2.82319549615333     -3.11276709544317      0.04677268582429
  H   3.91163448475242     -4.03492924696958      0.88484455959419
