42
Coordinates from ORCA-job 654optt
  C   2.13237648665954     -0.78488983119520      1.81444831444491
  C   3.12734694554364     -1.75157959470185      1.57383688343122
  C   2.18831688286864      0.04839219329004      2.90596480508861
  C   4.17900252753680     -1.93121769728813      2.42197119013690
  C   4.28367850595739     -1.09443438015745      3.59569832624993
  C   3.28324395920654     -0.07695887834309      3.82285484894536
  H   1.31385544874781     -0.71078846939298      1.11253549225301
  C   1.09541959392809      1.09628868520776      3.06567996519053
  C   3.40349611540634      0.79430259572813      4.99810526720345
  C   5.34325685843011     -1.27559823340817      4.49302719817610
  C   5.46345365763852     -0.48807251256902      5.64159413830521
  C   4.51578240211688      0.53045511171847      5.90814772789321
  O   2.61979637314898      1.73184184305943      5.25190682281926
  C   4.64458468215410      1.31525588401338      7.06912242071291
  C   6.52170527897241     -0.67033525846157      6.58009448972066
  C   5.66991834284663      1.11816138851738      7.95966316889852
  C   6.62135168396891      0.10468952713193      7.70067218157216
  H   3.89658332917835      2.08215401662687      7.22653675459384
  H   5.75474927394213      1.72859735003945      8.85017903334009
  H   7.25391332537640     -1.44703035958036      6.38459466619992
  H   7.43654668745680     -0.05813799658875      8.39737800182606
  C   5.20678276375731     -3.01788619001493      2.17073395642010
  H   6.08810119002113     -2.04006586493214      4.32791907092994
  H   3.03502091910094     -2.36631142189365      0.68610967657554
  C   -0.21783628184822      0.74181510482318      2.36717020079551
  H   -0.13489587843717      0.79279638454836      1.27867604405018
  H   -0.98620726500802      1.45912897973217      2.66476939200013
  H   -0.56078415855029     -0.25937768313705      2.63464240409415
  C   1.59728007241292      2.45007646136785      2.55451132116468
  H   0.89636183720312      1.20780831510792      4.12813735990814
  H   1.81588106477540      2.38452581573777      1.48418830315999
  H   2.49697542393255      2.74514666987443      3.09009068279312
  H   0.83842367931183      3.22314186907723      2.70457543106884
  C   5.27675263098942     -3.48784423597268      0.71923961538925
  H   4.37212296219664     -4.02722642647449      0.42981241002456
  H   6.11809356166064     -4.17267043669297      0.59116870298224
  H   5.40543971342750     -2.64910226056987      0.03335402218886
  C   4.95530097091829     -4.22595621230315      3.08254706903512
  H   6.18935231412020     -2.60489992791974      2.41533223845784
  H   5.75759731780060     -4.96335795683792      2.98995555877914
  H   4.01572254218677     -4.70580859951937      2.79714299612370
  H   4.87510625894313     -3.92379776764713      4.12593184705673
