38
Coordinates from ORCA-job 655optt
  C   -0.68526409342431      0.32622859780110      0.11931040200118
  C   -0.75865883725861     -1.05649977267757      0.03997828279067
  C   0.51728247478190      1.02539411176498      0.17223521466024
  C   1.70892644003781      0.26743751014443      0.13752377497930
  C   1.71540107852022     -1.09863241779915      0.06093872060085
  C   0.46148929700478     -1.85706061353420      0.01667433542917
  H   -1.62857502002872      0.85314471075423      0.13608130451552
  C   -2.09031775316101     -1.67110962089098     -0.01772564293976
  C   0.56900062255714      2.47438586174211      0.26460597544328
  H   2.64720019183777      0.80441772658230      0.19879177324767
  C   3.00898507735099     -1.81728090349636      0.02238079210475
  O   0.46710406122543     -3.10105703790098     -0.04719434408923
  N   -3.16120710786165     -0.84860710193683      0.02824488006904
  C   -2.31832233422334     -3.05483756465482     -0.11961246714065
  C   -4.36548970436807     -1.38302259768735     -0.02356199973519
  C   -3.62677676605307     -3.48779832128338     -0.16548398315774
  N   -4.68215493901401     -2.67136798138402     -0.11876072482112
  H   -1.48469539781080     -3.73542596603212     -0.15826314501324
  H   -3.84535866312692     -4.54877994791656     -0.24421087178494
  C   3.20782403134829     -3.02358534634432      0.70345614276177
  C   4.09266795367307     -1.28291694940169     -0.68197684302698
  C   5.33069523189088     -1.90961356763938     -0.69091652338192
  C   4.44591826728534     -3.64851484110777      0.69720585956738
  C   5.51581162992822     -3.09812015280763      0.00181217434242
  H   4.57527959208948     -4.57802629044493      1.23875470463581
  H   2.37551313751151     -3.46574041030747      1.22997471206803
  H   3.95324461813541     -0.36681952786920     -1.24284383917951
  H   6.14938849256020     -1.47200061584497     -1.24948744407901
  C   -0.57900288670298      3.28700436326460      0.36471047579315
  N   1.77566538375066      3.07675662741776      0.25428315725408
  C   1.81487917319129      4.39540798059112      0.33569734652713
  C   -0.40623861482758      4.64714993075562      0.44012889992603
  N   0.79450981482891      5.24027070528603      0.42729291541559
  H   -1.26634579730711      5.30553520520845      0.51653016054627
  H   2.80567860833059      4.84225447278731      0.32529287356395
  H   -5.19965478139099     -0.68708836224112      0.01621109128869
  H   6.47902806639245     -3.59330937216696     -0.00601415613217
  H   -1.57236054767321      2.86554747926978      0.38581601494953
