28
Coordinates from ORCA-job 658optt
  C   2.30443835948928     -1.24740379941936      1.85503125618208
  C   3.19299542886631     -2.34535886989019      1.88112996204602
  C   2.35246392627220     -0.31793769413774      2.85844151054809
  C   4.09142425998964     -2.49550647681037      2.90775889012848
  C   4.19665635133801     -1.51785517685047      3.94745186029997
  C   3.28453901612203     -0.42092651279488      3.90634869663922
  H   1.68413842671716      0.53337058596478      2.87529950083314
  C   3.29054729224487      0.61435347893025      4.93375382904877
  C   5.14166504868069     -1.62112128580800      4.97896778500783
  C   5.18417933296282     -0.65208252989624      5.99127695702305
  C   4.28104920883979      0.44968641873639      5.99457835828002
  O   2.50428483494641      1.57824040926253      4.91046221300353
  C   4.34187028344471      1.40233567753787      7.02647995026697
  C   6.12966381457487     -0.71944930260863      7.05776368860276
  C   5.25893469129785      1.30719293136674      8.04382037472072
  C   6.16536481810777      0.22255891991856      8.04719778465941
  H   3.62973544694149      2.21752783461968      6.97907037200116
  H   5.29307231449703      2.04850599775842      8.83250559392046
  H   6.82951731824897     -1.54882090569706      7.07016618235323
  H   6.89728949209846      0.13698808068918      8.84324398536209
  N   3.14203941054972     -3.34845448524004      0.87542414504031
  N   4.94381289155187     -3.62927678777585      2.88490045044685
  H   5.88224874484329     -2.41034318400256      5.00083690718958
  H   1.59548384212074     -1.15968435750581      1.03842703608315
  H   2.60120934245887     -3.04169905642126      0.07901600074536
  H   4.07434098345753     -3.60181994004019      0.56643529148209
  H   4.43195529309949     -4.45037492716158      2.58068312521907
  H   5.33607982623786     -3.80986504272411      3.79812829286632
