32
Coordinates from ORCA-job 659optt
  C   2.54900302536941     -0.86302626810648      1.57559254389701
  C   3.23599139168519     -2.09815995072274      1.65464927241761
  C   2.64393399837178      0.01873626161348      2.61070155892697
  C   3.98577420254822     -2.41949298363747      2.75395811402084
  C   4.10760901385627     -1.52041249809400      3.87818382200633
  C   3.40637900555104     -0.27517243276145      3.75959638541161
  H   1.96050467826832     -0.63644450641106      0.69550889154764
  H   2.14164483707133      0.97723696688147      2.59811298323160
  C   3.44163280221420      0.73943814979540      4.80521499249943
  C   4.84402843525318     -1.79023080169267      5.04303201680911
  C   4.89553939229060     -0.85007679011679      6.08381394307208
  C   4.21633115939392      0.39705976386632      5.98563772069506
  O   2.84466385039406      1.82885721134585      4.69619591603377
  C   4.29014259310084      1.31757671445508      7.04709689301291
  C   5.62543435338082     -1.10979469982831      7.28386158289201
  C   5.00444928197865      1.04716670451161      8.18583984286015
  C   5.67681946759785     -0.19204856259975      8.29474156760723
  H   3.75375491101602      2.24990631459493      6.91911213515083
  H   5.05225324070775      1.76566173800325      8.99478267397723
  H   6.12934049930865     -2.06248283833448      7.38164002627451
  H   6.23728048642134     -0.42045335195312      9.19493659843447
  H   3.15967194668741     -2.78920724188777      0.82740561522153
  O   4.66677322358130     -3.60578893977731      2.84908759947509
  O   5.53190134273702     -2.98286849519926      5.23867087335413
  C   4.56446632081773     -4.50691523756007      1.78677293319595
  H   5.16221824873668     -5.37403105367625      2.06308662758935
  H   4.95343014891707     -4.08222674042661      0.85389429630330
  H   3.52789641793031     -4.82143948779041      1.62149354788777
  C   6.85422575074995     -2.93790945642348      4.76035274256093
  H   7.32364212439094     -3.89317350017038      5.00465055641899
  H   7.41537657716701     -2.12533700301208      5.23702627532924
  H   6.87305727250488     -2.79547698488537      3.67574945188507
