22
Coordinates from ORCA-job 65optt
  C   2.24667756322284      0.53804468752208      1.40167261104057
  C   2.73496801360600     -0.73938063289074      1.21041812884308
  C   0.97254291854165      0.98990418081592      0.81692447899407
  C   0.26973107418891      0.02907351651949     -0.00477026239466
  C   0.81298441444789     -1.28514915341507     -0.17972255961061
  C   2.02863797458637     -1.64667261672989      0.43377771755248
  C   -0.98800311742102      0.37231293730177     -0.63125739591853
  C   -1.61693212773219     -0.67936817080165     -1.44853511384352
  C   -1.06093954678376     -1.93529361581698     -1.59062722757416
  C   0.13756956622826     -2.24234925880336     -0.96249175207594
  O   0.60584378699508      2.14829742970733      1.08721798621872
  O   -1.59355849148860      1.45599801247063     -0.54011653822521
  N   -2.78844431454986     -0.28937402238993     -2.07406097204489
  H   -1.56457492092623     -2.67678328823299     -2.20413914600396
  N   2.91267178885135      1.50788511313036      2.13087052475668
  H   3.67910903277732     -1.02454635176099      1.66547317086062
  H   2.40921199090965     -2.65029848782606      0.28291312811479
  H   0.57550607071515     -3.22784074005611     -1.07165475115351
  H   2.28885965109233      2.28915213789582      2.30874848037357
  H   3.43369469725553      1.18440616687655      2.92970331798843
  H   -3.49353165225024     -1.00043307264710     -2.18112284346619
  H   -3.11364437226651      0.58629522913095     -1.67607098243182
