22
Coordinates from ORCA-job 660optt
  C   1.10042718893505     -0.84342268238090      1.64552970638748
  C   0.77718409795955     -1.17379313914463      0.30879554840295
  C   0.26539722322570     -0.00312374843404      2.34985599084968
  C   -0.88869549221480      0.54299600018214      1.77082548380980
  C   -1.22256877270673      0.21384575190033      0.42567422496500
  C   -0.34834242399086     -0.66151602305375     -0.27513605691791
  H   1.43183098356480     -1.83956395511874     -0.24168907400798
  H   -0.59214635711476     -0.92235629597266     -1.30001658332671
  S   2.57179485364740     -1.49861430549404      2.38586891978861
  H   0.47686489122604      0.26682073411099      3.37815321483602
  C   -1.72760459431338      1.44749561135505      2.58007161228698
  C   -2.38398110546529      0.75127179962862     -0.16343745882258
  C   -2.88308593900750      1.94167197947994      1.90628367990977
  C   -3.17884397865793      1.59679410521822      0.59410508568045
  H   -3.53174200573513      2.60828613451279      2.46189897019877
  H   -2.63898267839693      0.50036631203502     -1.18562258782690
  H   -4.07578110282767      2.01157775799740      0.14149693628707
  O   -1.42170003398476      1.73899853313167      3.75774668919485
  C   3.72478012104307     -0.14251595524080      2.04788718534397
  H   3.81610298486842      0.02030197508606      0.97492190540079
  H   4.69546479101357     -0.42368485834129      2.45688061755154
  H   3.37750734893214      0.77022426854260      2.52890599000828
