21
Coordinates from ORCA-job 665optt
  C   1.35032553991912      0.00153195030436      1.70524485920600
  C   1.27586328874333     -0.24032252147827      0.30768142903238
  C   0.26321580596904      0.48552955860522      2.38780345041095
  C   -0.98055314387423      0.74173124327931      1.74309040352612
  C   -1.04203635547022      0.48208262417912      0.33324336421819
  C   0.09196058065246      0.00863238130828     -0.34363628313007
  H   2.14630509295684     -0.54419589170877     -0.26255487754727
  H   0.02202457935398     -0.15064843918118     -1.41516720191734
  C   2.58670094345121     -0.28596168756724      2.48065059240327
  H   0.35684865005272      0.66277580890558      3.45265041983348
  C   -2.09761437513620      1.21737205593836      2.42951605124542
  C   -2.27747911498125      0.73215077913918     -0.32485019309162
  C   -3.34458289209996      1.47245690254948      1.79028714622316
  C   -3.35790806883514      1.19468454240022      0.35352395636755
  O   -4.36921741859660      1.89875009533423      2.36851772867297
  H   -2.33920283683631      0.54236298522267     -1.39305234197650
  H   -4.29708606669495      1.38219878547845     -0.15577185161522
  H   -2.02991689689238      1.40709405922305      3.49488987385138
  O   2.87670243948918      0.19539995787569      3.54003247439007
  O   3.43324536017593     -1.19113638333862      1.91756404121445
  H   3.00780488865347     -1.56621880646915      1.13774695868259
