21
Coordinates from ORCA-job 673optt
  C   1.29233725094177     -0.08811266760209      1.70519635846375
  C   1.22937140877648     -0.36497730357141      0.32227655750903
  C   0.22708642443894      0.43438279184352      2.39327380489127
  C   -1.00475183578233      0.71972893633168      1.70996993197486
  C   -1.05750878206997      0.43414712742326      0.30823576586638
  C   0.06231827937155     -0.10162830891186     -0.35123861148279
  H   2.08870236070913     -0.77755839516358     -0.19127830609770
  H   -0.01544771309968     -0.30479532093641     -1.41540198654315
  H   2.21204245454312     -0.29434410435702      2.24480622456391
  C   0.33176295473956      0.71563004194454      3.86425162594392
  C   -2.12374444058948      1.25510700418334      2.35907275197233
  C   -2.27417372917461      0.71326885413233     -0.37565815067236
  C   -3.34854320866644      1.54199775524068      1.69225703417012
  C   -3.35201811341045      1.23181378043151      0.26525879975445
  O   -4.36605232772030      2.02238157024399      2.24930941366484
  H   -2.32139486384757      0.49808680119642     -1.44041308945605
  H   -4.27365396284714      1.43987198938562     -0.26796600802765
  H   -2.09084569771747      1.47381591063233      3.41916480639559
  H   1.32002631891726      0.44971482284996      4.24169998771407
  H   -0.41875630778729      0.15346693995038      4.42726132528367
  H   0.15082353027490      1.77314177475279      4.07694176411147
