27
Coordinates from ORCA-job 675optt
  C   0.59344979154948      0.19829775574093      1.77089843433245
  C   0.81347845546781      0.63586846689409      0.44966942221756
  C   -0.68982618366994      0.17010823512416      2.26548786057577
  C   -1.78743915274238      0.56683433877411      1.48536661909363
  C   -1.57436561072379      1.00806431849437      0.15237726107148
  C   -0.24097936218589      1.02850274112996     -0.33352168625784
  H   1.82157015970037      0.66209456753136      0.05018797574172
  H   -0.06809486888253      1.36502939442828     -1.35099899344342
  H   1.42976150684879     -0.11158546667400      2.38629781348512
  H   -0.90584986198912     -0.15860828656487      3.27514676405522
  C   -3.14084513276477      0.51550647726252      2.06951431728782
  C   -2.67296037245940      1.40949271195710     -0.64368757296168
  C   -4.18041870942369      0.93570069719551      1.19539858950182
  C   -3.95031820097104      1.36706484369108     -0.11273485077886
  H   -5.18819905896699      0.90893935229345      1.59702358685990
  H   -2.50493381316125      1.74665819666921     -1.66084841159689
  C   -5.12286995085724      1.80120709350608     -0.97417408523912
  O   -3.32430347311895      0.12739857206722      3.24756911624880
  C   -6.10883993263201      0.65496670560956     -1.20658946126788
  H   -5.60231465007602     -0.20591274473575     -1.64520960703266
  H   -6.91817748163926      0.96396734979623     -1.87446886515299
  H   -6.54986173152159      0.33464017141083     -0.26097030159806
  C   -5.84369286717469      3.01136460614044     -0.37755866453422
  H   -4.71592425867004      2.09733139512202     -1.94625738550689
  H   -6.64907541095675      3.35132079576853     -1.03511052674097
  H   -5.14701839623222      3.83623440255125     -0.22170219312138
  H   -6.27802143274665      2.75613330881625      0.59070484476151
