19
Coordinates from ORCA-job 679optt
  C   1.24985797120468     -0.03106601780197      1.94530045578039
  C   1.17308746723339     -0.29275878913682      0.56560603083828
  C   0.16859398763186      0.48593660351705      2.60668196635430
  C   -1.02899746429433      0.76244310180353      1.92343059939781
  C   -1.12631660117911      0.50517192747898      0.52950191110197
  C   0.01334879031649     -0.02928857197520     -0.11807275422914
  H   2.03522097232686     -0.70424662443380      0.04693563896066
  H   -0.04077545971313     -0.23332618464555     -1.18252477885366
  O   2.41372332483018     -0.29262539280569      2.64828735406961
  H   0.20474049892293      0.69543339297697      3.66840133814851
  C   -2.16223233619292      1.31836255739108      2.68830744091606
  C   -2.33197305741400      0.78149245074300     -0.16406086782156
  C   -3.32905630707623      1.56460754942441      1.91694404400732
  C   -3.39252640546111      1.30031647745991      0.54765323278626
  H   -4.18738057766826      1.97339789460612      2.43714175592100
  H   -2.40167507352423      0.58330393783452     -1.22677026854291
  H   -4.32009976739887      1.51460100951238      0.02305059761435
  O   -2.06190220408589      1.54073595615999      3.91959243980731
  H   3.06405224154169     -0.63857127810891      2.03209386374340
