27
Coordinates from ORCA-job 684optt
  C   2.13163204434380     -0.78491876154764      1.68816140856724
  C   3.02251723031171     -1.87435488461067      1.58694795541978
  C   2.21084217712650      0.10423534918204      2.73759069628650
  C   3.98304497555249     -2.06411983694908      2.53167583676948
  C   4.11717493771069     -1.17646950770820      3.64185307251865
  C   3.20717660825140     -0.07042770902199      3.74478423315581
  H   1.37140005856937     -0.64227571952177      0.92900157704586
  C   1.22176398678085      1.24069125303598      2.76634047080938
  H   2.93787764577416     -2.56010100866421      0.75066830527126
  H   4.67236548401302     -2.89856907855675      2.46036988023079
  C   3.32035095849326      0.85167563693344      4.87457971805784
  C   5.11867752101763     -1.39979994643949      4.59158699812792
  C   5.26446923809492     -0.53838865969701      5.68106517803610
  C   4.38937629502624      0.57337289283203      5.83478255882383
  O   2.56478330636606      1.82959279548021      5.03862735172900
  H   5.78544960880764     -2.24678698297225      4.47624462436526
  C   4.54818266462537      1.43466475638903      6.93546946692421
  C   6.27404145916939     -0.72364599241392      6.67257159429192
  C   5.52914597406046      1.23398580577172      7.87453873675612
  C   6.40239294084395      0.13110949114378      7.73027868770139
  H   3.85763311332551      2.26608326634700      7.00690128933708
  H   5.63780611339915      1.90747274092507      8.71564640662886
  H   6.94739111317527     -1.56802341704639      6.56675002561022
  H   7.18136193922205     -0.03702453332932      8.46630163310847
  H   0.56631330365252      1.17439322602209      1.89523267202551
  H   1.72793798162827      2.20497360452339      2.77326119205433
  H   0.62546132065818      1.22305521989296      3.67746843034704
