25
Coordinates from ORCA-job 690optt
  C   3.22695588989403     -0.60461508034273      2.89233293710341
  C   3.95600049202407     -1.80027432926513      2.64813091072480
  C   3.58215605470102      0.19567541008520      3.93816001048822
  C   4.66393005331552     -0.13548373832211      4.79149745407381
  C   5.39418994426264     -1.34364307738277      4.54277144237271
  C   4.99937697595140     -2.16167246453683      3.43900811541992
  H   2.39663438089190     -0.34237711426288      2.24439977647527
  O   3.60381571655956     -2.61102122067502      1.59204028042521
  H   3.03399757409526      1.11043268502041      4.13452811913478
  H   5.53541708326420     -3.07904460528686      3.22735230997294
  C   5.04378276357822      0.67646643688933      5.86881271374123
  C   6.09553665463251      0.35047482200889      6.69701806962181
  C   6.83636537560136     -0.86328321115501      6.46105707409357
  C   6.45494830825466     -1.67267447502604      5.38040722067627
  H   4.50998419686737      1.59703874076877      6.08015344792245
  H   7.00803736542779     -2.58817404078046      5.19303768977443
  C   6.43383550227145      1.26880338100164      7.81775775514819
  C   7.91055845776678     -1.18922193062603      7.32097758033161
  C   7.52500708729508      0.84703124675439      8.62362730217032
  C   8.21546417734032     -0.33388319703628      8.36342401153862
  O   5.78048276313512      2.31838565402323      7.99752689246694
  H   7.80698180138214      1.48180974466946      9.45450866280815
  H   8.47539620093134     -2.09811583077675      7.15556143180012
  H   9.04227273719938     -0.59658703641827      9.01867711523789
  H   2.85467244335677     -2.21400676932813      1.14043167647715
