30
Coordinates from ORCA-job 695optt
  C   2.07056183907144     -0.44877322017402      1.65996421460224
  C   2.82060630030854     -1.63826917693221      1.59709221576425
  C   2.26178500401729      0.37429878838092      2.73598734684487
  C   3.78365333414697     -1.96345073969579      2.51971748009237
  C   4.09862407225190     -1.04560659500207      3.59643406036976
  C   3.22965250530387      0.09204828215774      3.71428831321173
  H   1.32497219228232     -0.22986040985930      0.90583655402977
  H   1.67299362441261      1.27065532289890      2.88573296835710
  H   2.59883957375255     -2.35739689652530      0.81362609463027
  C   4.36010161196681     -3.36038671040510      2.42961503121134
  C   3.30155311453856      1.01406741074883      4.84256922078112
  C   5.14836773713423     -1.23285572791494      4.52721556672533
  C   5.19004692691029     -0.40788218494912      5.67280470768460
  C   4.28665836625422      0.68049173212120      5.85778969624794
  O   2.56138428244675      2.01044936054420      4.93779656115515
  C   6.31701319070739     -2.16115010146675      4.28832395119258
  C   4.35326490061765      1.47903498418907      7.01143380600617
  C   6.13948711911542     -0.61780663788914      6.72392903205309
  C   5.27398390918489      1.24504322306770      8.00162802421054
  C   6.17469899195951      0.17175353575092      7.84115566616403
  H   3.64058357847672      2.29228324255833      7.07738879642428
  H   5.31110753471407      1.86551892277923      8.88832047118653
  H   6.83309483267424     -1.44513737930119      6.65356647220514
  H   6.90335352299307     -0.03900110771801      8.61690982177395
  H   3.66490572490124     -4.00043458748981      1.88432305514588
  H   4.50747182030666     -3.79004474782830      3.41998963295450
  H   5.31848324831652     -3.40798160932205      1.90848297582179
  H   6.44851122311191     -2.36967009239200      3.23126980799727
  H   6.25720625511611     -3.12402397492050      4.81214363712729
  H   7.24149366300604     -1.68174290541139      4.61812481802884
