32
Coordinates from ORCA-job 697optt
  C   2.49274653244154     -1.30573940965945      1.80639886231162
  C   3.39793623946023     -2.37566862827983      1.90477120083778
  C   2.47812612510716     -0.32386289213368      2.77980690157640
  C   4.28666092937029     -2.46901043837601      2.93356559221266
  C   4.33600846032991     -1.47220002448763      3.95365194213283
  C   3.39529056272146     -0.39262263241179      3.87166551360754
  S   1.32032730804294      1.01892785902846      2.69131810037701
  C   3.38143995380675      0.63474586192003      4.89965843700397
  C   5.27029891095671     -1.55937750003270      5.00893477248305
  C   5.20661477374130     -0.63257504232663      6.07250594564512
  C   4.29250104848097      0.45392924858616      6.02549087065731
  O   2.62383259128251      1.61792508061142      4.83627027093358
  C   4.24647048933662      1.39109649854668      7.07009040362156
  C   6.02588095853225     -0.72889086223827      7.23768605761480
  C   5.06171769528769      1.28340033482852      8.16932762504396
  C   5.95447916494302      0.19622949256631      8.24440086511811
  H   3.53414913565576      2.20032922098273      6.96814226752292
  H   5.01300114306985      2.00918655872443      8.97121187967763
  H   6.69247771570978     -1.57392160842606      7.35196113895839
  H   6.58678682925247      0.07925666076881      9.11775933313410
  H   3.37283063898303     -3.15099903319821      1.14669962293875
  H   4.92986661993660     -3.33544075890181      2.99825675797424
  C   6.33429214692060     -2.60051590044093      4.99288531562196
  H   1.81402969649797     -1.28552377358209      0.97021664229643
  C   0.39469606283979      0.58539810796662      1.20060563766521
  H   -0.35264568746904      1.37257859931329      1.10337484203053
  H   -0.11555389475121     -0.37392383374254      1.29244145410885
  H   1.01906334817480      0.58427479510758      0.30649596182284
  S   5.77804558834235     -4.15963822336295      5.83262616023548
  H   6.90567078498971     -4.86883491711003      5.66874862917810
  H   7.22602421407507     -2.25891334921348      5.51305113017604
  H   6.61988391393080     -2.86583949102695      3.97784986548097
