32
Coordinates from ORCA-job 698optt
  C   2.74497798928732     -1.30849054423035      1.58490668620787
  C   3.47478419911646     -2.49367028756361      1.80624369800726
  C   2.80527249135795     -0.26391339810127      2.48348569802935
  C   4.20768090472956     -2.63994855657846      2.94281819610241
  C   4.28891236454136     -1.59697267023842      3.91181551209440
  C   3.61077865542301     -0.35830607610271      3.65923821130425
  C   3.82433245376952      0.75829489381426      4.58198071085640
  C   5.03692824475425     -1.79033970435118      5.07405722833200
  C   5.13387400471708     -0.79225040380665      6.04391503285877
  C   4.51803838769475      0.47751377448674      5.83274808157597
  O   3.45007341627872      1.91853472108795      4.33220861722482
  C   4.61052498006514      1.47647085948780      6.84985385765063
  C   5.85183281270099     -1.01605239785440      7.25406593958038
  C   5.30904638389867      1.20968241486210      8.01252381458876
  C   5.93298412954932     -0.04107599797644      8.19930369934580
  S   3.79827085996618      3.03867621868701      6.62066315826121
  H   5.39882946311026      1.94401653219160      8.79585793994705
  H   6.32574027953240     -1.97943346849405      7.40349699648110
  H   6.48074486071364     -0.21822717656322      9.11851005779620
  H   3.42189567293393     -3.29677435068321      1.07984521862558
  H   4.74783558670319     -3.55944900545618      3.13961623635605
  H   5.53750515698981     -2.73838468151891      5.23225430923925
  S   1.82455499876889      1.14091249071787      1.99820796733620
  H   2.10472779687487     -1.21760706352508      0.71805106214448
  C   0.73849584721610      1.38114927328522      3.41832918020832
  H   -0.03673540724364      2.07394470582425      3.09049855929944
  H   1.29765394320757      1.80718690950471      4.24756088603466
  H   0.27573898137452      0.43568697714483      3.69810925744012
  C   4.00617439242099      3.78271780973646      8.25560618791093
  H   3.58463965986135      3.16295090351314      9.04768483108345
  H   3.45080637000691      4.71910708174017      8.20500341862750
  H   5.04799011967863      4.00998021695999      8.48430974944898
