28
Coordinates from ORCA-job 699optt
  C   3.18884149275724     -0.23374866576217      2.92370647026967
  C   3.80267547225727     -1.48539500288309      2.66735156319097
  C   3.58702646010512      0.54661948928133      3.97908081279765
  C   4.65199339914203      0.10532909223558      4.83431315881581
  C   5.28000840394700     -1.15614415482065      4.56469709522898
  C   4.81533416109224     -1.93004221741260      3.45987269102790
  H   2.41508535140567      0.12808443188044      2.25783127859873
  H   3.46822403994843     -2.07863882978761      1.82454326991727
  C   2.93819113224926      1.84764012434440      4.21927502348777
  H   5.29400047261839     -2.88300568234593      3.26196227298983
  C   5.10553546826258      0.83844016753216      5.93956223695640
  C   6.13712595537429      0.40054470783686      6.74644154175700
  C   6.77986198002592     -0.85763735509454      6.47460974811536
  C   6.31639421046269     -1.59902111159588      5.38218771422166
  H   4.65845597192164      1.78462133987601      6.21732289165203
  H   6.77922594966019     -2.55693157434352      5.16318747673609
  C   6.55484449920611      1.25766434916080      7.88927725956915
  C   7.83549585951347     -1.29280206145145      7.31100302216076
  C   7.62093457127802      0.73316918480274      8.66577397693314
  C   8.21766938912796     -0.49120760980976      8.36826018852790
  O   5.98277867626833      2.34717271287824      8.10652003009215
  H   7.96094671123375      1.32254404300065      9.50832702570410
  H   8.32423035115839     -2.23843047568677      7.11285113862145
  H   9.02929021643040     -0.83166468511939      9.00632150145461
  C   1.65014994097880      2.10583416495481      4.01555745921610
  H   3.57346688171938      2.64150475680848      4.59740895969289
  H   0.96288130362294      1.33471931995367      3.68729641465528
  H   1.24312167823234      3.09315154156720      4.19160777760920
