26
Coordinates from ORCA-job 6optt
  C   1.95638154785736      0.20064024094725      1.67967263070090
  C   2.19717425556912     -1.15952706417727      1.68114552718247
  C   0.90642369005854      0.82696499425726      0.84207535404587
  C   0.18869435142530     -0.05481254723497     -0.04040274203153
  C   0.48210282207134     -1.44907026123618     -0.03269492755897
  C   1.46881612298069     -1.97687311253888      0.83264425553314
  C   -0.83814946795944      0.46054780186810     -0.94796053039025
  C   -1.49531697323867     -0.53733736231335     -1.79251463406241
  C   -1.18612290096152     -1.86942075255687     -1.75261715529132
  C   -0.20209668307442     -2.34064347386002     -0.87936106037120
  O   0.73873078763125      2.05111342568358      0.97416500858175
  O   -1.17237067352837      1.64495029421681     -1.04666909548567
  H   -2.25375111992393     -0.15040355227534     -2.46243540366907
  H   -1.70560777943814     -2.56754241925846     -2.40083775298318
  N   2.58798897059227      1.15495731680102      2.47017663036602
  H   2.93881022074707     -1.58294880365649      2.34370959911033
  H   1.64951637742043     -3.04490879815381      0.82423524964020
  H   0.04650658332271     -3.39444283245270     -0.84117803617406
  H   2.10234681905347      2.05010978980225      2.38670110799241
  C   3.69880663216663      1.12580108681382      3.24392243621751
  O   4.02632975872930      2.01495893938005      3.98993728131052
  O   4.45704002905440     -0.01216774790366      3.13428848397194
  C   5.17168463205828     -0.10595833030273      1.90836737756099
  H   5.63891365848987     -1.08820505786896      1.89291563798616
  H   5.94304973028857      0.66705696667095      1.86953484671345
  H   4.50558860860772     -0.01194874065137      1.04886991110391
