32
Coordinates from ORCA-job 700optt
  C   2.06527922159437     -0.66330296399119      1.62357015903104
  C   2.81692322379398     -1.85934753043057      1.53577037877621
  C   2.29016216929154      0.19274362126390      2.66789711156744
  C   3.77618718897779     -2.12957627203852      2.48309431986600
  C   4.07824027947511     -1.24161500031684      3.55415538252754
  C   3.26620628156478     -0.07105767926820      3.64328725632482
  H   1.31302726546218     -0.44590411792665      0.87379190267350
  H   1.71714465076529      1.10355145685925      2.78934494405645
  C   2.53435764933514     -2.78562653324466      0.42728369642375
  C   3.38715447682299      0.87043648438559      4.75112403822980
  C   5.07639122722034     -1.52031671856864      4.52930612076676
  C   5.21182927856920     -0.62543834409167      5.62544059779618
  C   4.38963254037287      0.53143108043287      5.75482910252766
  O   2.68184555698294      1.88770271446168      4.83524338146862
  C   5.94447317394399     -2.69130555179225      4.47336447058541
  C   4.53761608684599      1.39786560049657      6.85105923441910
  C   6.20411443222244     -0.80156925294015      6.63919601805898
  C   5.47485326553076      1.17464207225994      7.82710202230709
  C   6.32067511238051      0.05511201573538      7.70017437644146
  H   3.87603646791945      2.25482150221520      6.88249112240927
  H   5.57897858352788      1.85046252087699      8.66658307077977
  H   6.90482836545794     -1.62086928653151      6.55993779641165
  H   7.08928134288768     -0.12523875100430      8.44395246422921
  C   3.28941487782385     -3.80066049140383      0.01503608990670
  H   1.60821209329771     -2.58692036232520     -0.10745730674485
  H   4.23601276984048     -4.03890623435679      0.48535325116925
  H   2.97918462269781     -4.42394072012925     -0.81359727590978
  H   4.29537030667040     -3.07486364215282      2.43951740853721
  C   6.52506204529133     -3.27587212700708      3.41749622436389
  H   6.16416465559544     -3.14638931411544      5.43754792479518
  H   6.42785103382572     -2.88583553250889      2.41204820455545
  H   7.13826975401184     -4.15908264284288      3.54688651164901
