12
Coordinates from ORCA-job 710optt
  C   -1.53384016310066      1.35211351925239     -0.00002097489785
  C   -1.77525752442956      0.00132191612142     -0.00000165731389
  C   -0.20791728156739      1.90996992418656     -0.00012029894020
  C   0.81736737137701      0.90262418966294     -0.00001650580683
  C   0.54533208543572     -0.45186242315164     -0.00000266716856
  C   -0.75904460446333     -0.94563315310678     -0.00002208301196
  F   -3.06656489977002     -0.41954516533568      0.00003495400584
  H   -0.99842241189261     -1.99891097610007     -0.00000481296660
  F   -2.59332341219913      2.19099207689379      0.00002400175044
  O   0.00560577194725      3.14657743560880      0.00006557536942
  H   1.84016219400096      1.26091743272508      0.00002965949874
  H   1.37064287466180     -1.15658477675684      0.00003480948146
