21
Coordinates from ORCA-job 712optt
  C   1.28994315042732     -0.09435588638020      1.78507637405221
  C   1.12729500930256     -0.38218052347413      0.41225909020897
  C   0.25008254445661      0.47169499970899      2.47810641275923
  C   -0.98214975652532      0.75764785672537      1.86703547564065
  C   -1.16750114574318      0.44919552591237      0.48971851964841
  C   -0.07426045143445     -0.11998920935651     -0.20783837107243
  C   2.27796805961818     -0.98160772470862     -0.31545172583530
  H   -0.24286522381881     -0.38783369718839     -1.24821700228338
  H   2.23718824385511     -0.32181450497466      2.25456894984175
  H   0.33795239093983      0.72036152856876      3.52875980623110
  C   -2.05803378268503      1.36101408883797      2.67422705538639
  C   -2.40460284467450      0.70770261300515     -0.13847822428447
  C   -3.27067385795570      1.59088753559176      1.96200536299641
  C   -3.41729487250523      1.27118789542286      0.61699701260569
  H   -4.09167314990458      2.03051781769035      2.51544689928311
  H   -2.54274609196609      0.46910495604748     -1.18568916899272
  H   -4.37191116944757      1.47457992178342      0.13961013965337
  O   -1.88610277010837      1.63411328336872      3.88275806091103
  O   3.19404116085018     -1.55546180981388      0.20502422211108
  O   2.27423716642846     -0.84405915186312     -1.66736263126171
  H   1.54177739089057     -0.27047551490369     -1.91911625759943
