28
Coordinates from ORCA-job 713optt
  C   3.37237174530225     -0.72828370562853      2.87049182312715
  C   4.18794323340865     -1.85923844193507      2.62533455978850
  C   3.65235780519978      0.08760748317385      3.92837650459881
  C   4.73864092586387     -0.18219038595913      4.79790186137521
  C   5.55596759023152     -1.33942522372429      4.57055879261714
  C   5.24701832937849     -2.17502025848161      3.43576546879478
  H   2.54713672974508     -0.50773938882549      2.20529192218758
  H   3.99460501704166     -2.47504637727512      1.75450247877259
  H   3.04890802481652      0.96714452404463      4.12423790469856
  C   6.08809711128026     -3.34102840459234      3.12555204770634
  C   5.03016719815522      0.64994732159987      5.88782572373597
  C   6.06973806180050      0.39182263536396      6.75388675489909
  C   6.88460258212225     -0.77803197204144      6.55258243692751
  C   6.59175217574175     -1.61012950098001      5.46106507746847
  H   4.42898246781504      1.53224133907550      6.07981039024970
  H   7.19538560488477     -2.50080400223378      5.33169641450379
  C   6.31215761554781      1.33008335022892      7.88308940585531
  C   7.93875741870207     -1.04572681044615      7.45552673746024
  C   7.39407244922752      0.97117748124473      8.73088368407975
  C   8.15719749694107     -0.17158588874807      8.50424248074620
  O   5.59383593896292      2.34058167983681      8.03253277832614
  H   7.60935869891859      1.62273909432027      9.56863305626932
  H   8.55780687511438     -1.92293426272827      7.31532222678978
  H   8.97123870132972     -0.38647301442534      9.19187188990334
  C   5.65025192274660     -4.50071024840001      2.64294629268862
  H   7.15249503571922     -3.22555630235758      3.30784372727653
  H   4.59348324503170     -4.68469027484263      2.48780186811519
  H   6.33568999897057     -5.30316044526361      2.40200569103827
