42
Coordinates from ORCA-job 714optt
  C   1.64783317165072     -1.69896261779865      2.23637645982576
  C   2.73960844667896     -2.53026533833643      1.92797865544698
  C   1.82699469519415     -0.73893633597522      3.19602667701810
  C   3.92845764583253     -2.48639847694496      2.61464607003794
  C   4.05951619842964     -1.63024982500658      3.77993002850224
  C   3.01159634405943     -0.66442294312901      3.94590122183894
  H   0.72437490564373     -1.77351686912122      1.67599178973178
  H   1.06619704872300     -0.00226929755896      3.42214152141779
  C   3.10664842361016      0.42180193386840      4.91502415487529
  C   5.13808692765939     -1.68114291838351      4.70541648752283
  C   5.29547689350373     -0.59371392037987      5.59938963502121
  C   4.33690686393444      0.46039107872329      5.68804761135602
  O   2.20252436303297      1.26304309959477      5.06255109722392
  C   4.52951738702060      1.54125878028636      6.56577818152420
  C   6.43045752027745     -0.46329329945480      6.46271816354899
  C   5.63619982329682      1.63323808536773      7.36986617129635
  C   6.59589185579071      0.60226442108716      7.30416029817007
  H   3.75271393713582      2.29620322235280      6.57752622653789
  H   5.77546854070179      2.47407640515731      8.03770290719238
  H   7.20676584153636     -1.21166619934533      6.42952942815922
  H   7.48648189699769      0.65526772378702      7.92134886992451
  C   5.11590809494428     -3.19287225045771      1.96293580356310
  C   5.89820616496794     -2.98556504326784      4.92530826798611
  H   2.66116724866810     -3.18621548431042      1.06565205451575
  C   5.37490952987274     -2.62598023964388      0.56119124332528
  H   4.54806763011442     -2.84776440807170     -0.11609276373348
  H   6.28532316222155     -3.05780594849047      0.13604230340494
  H   5.49066628279385     -1.54242443417047      0.60366419589274
  C   4.95337988190939     -4.71251848676727      1.88367735779242
  H   6.00871827347719     -2.97010934414117      2.53793366406081
  H   4.09312385069477     -4.97267849777749      1.26257815928855
  H   4.79117042588060     -5.15288084789485      2.86847525872917
  H   5.83845989716209     -5.17606656595121      1.43955304717299
  C   5.65988044734842     -3.56563696429927      6.32919225251092
  H   6.05392820621528     -2.92264158045153      7.11564765529003
  H   6.13909212858597     -4.54562545655282      6.42099277006394
  H   4.59032105133401     -3.68679971143308      6.50583467189587
  C   7.40496899146515     -3.00642652964999      4.59288119493100
  H   5.42755393865727     -3.70991522505522      4.26713019637909
  H   8.01884601540471     -2.72798410459776      5.45054304567509
  H   7.64663822290157     -2.31930439936584      3.78122658981318
  H   7.71571182467013     -4.01307118644014      4.29596137526967
