15
Coordinates from ORCA-job 729optt
  C   -0.63480395991754      1.15056544237496     -0.54673758719509
  C   -1.78435257521807      1.77557368407235     -0.10688292009904
  C   -0.46325734198893     -0.27945546154735     -0.49505421460559
  C   -1.58726535608065     -0.98294034923034      0.07028672622962
  C   -2.71856179265761     -0.33775562219163      0.52096457969774
  C   -2.85682018074535      1.04871164034686      0.43836137945527
  O   0.57057993527107     -0.85831170526189     -0.90658361973907
  H   -3.52142871118521     -0.92106759148913      0.96210995482870
  C   -1.87381547541610      3.25668097732408     -0.25326980533630
  H   -3.72047429234489      1.53670609281763      0.87458802154665
  H   -1.50412290946073     -2.06193429300812      0.13831868127183
  O   -0.95224834308083      4.02381236844671     -0.28291298207055
  O   -3.13930314545001      3.74629784968529     -0.37937690742269
  H   -3.73869194889200      2.99127820820134     -0.43557493226971
  H   0.16862609716686      1.74577875945922     -0.96239637429177
