34
Coordinates from ORCA-job 731optt
  C   2.68070473630413     -2.21815174719696      1.03789530980096
  C   3.55336488549357     -3.31774849357255      1.26111224362365
  C   2.63772307362713     -1.19365362286282      1.94685886156974
  C   4.33750372661653     -3.33647267159625      2.38633532749065
  C   4.31318592611608     -2.28891288157854      3.35348586765401
  C   3.42915902735949     -1.19535578655248      3.10814855610259
  H   1.99312464307030     -0.33585036097982      1.79681985040840
  C   3.32769195154584     -0.07603594695709      4.03740936869698
  C   5.11248520603598     -2.32485198806606      4.49976049698021
  C   5.05543909185357     -1.27283826094819      5.42242769081806
  C   4.18788701799696     -0.15945466772626      5.21430647512664
  O   2.56055313205319      0.88334807308853      3.84101829135405
  C   4.15186535009388      0.88398154826517      6.15704591501189
  C   5.85448492387574     -1.26296770083824      6.60503332474820
  C   4.93377797071678      0.86504984459911      7.28427740783675
  C   5.79648618351314     -0.23414189338561      7.50169421712189
  H   3.47588091789713      1.70479611578471      5.94961651319471
  H   4.89478204359524      1.67656389216505      8.00020232305283
  H   6.51951399653919     -2.10215279862752      6.78047510135337
  H   6.41905141877233     -0.26062427843157      8.38949709997124
  C   3.59951627521435     -4.43590270094426      0.29122117272443
  H   4.98205863666558     -4.18832972518282      2.57839495034920
  H   5.77623687516886     -3.16390709180955      4.67374322391383
  H   2.08254577710502     -2.18090573906438      0.13594464652011
  C   2.44025834051476     -4.87235836199501     -0.35625713166043
  C   4.79766811447241     -5.09034533923179     -0.00828158086175
  C   2.47453916721752     -5.92522567557148     -1.25890238568405
  C   4.83438144674186     -6.14471778989464     -0.90861566542390
  C   3.67230237178222     -6.56924194707911     -1.54047124069003
  H   1.55943856656847     -6.24878866464296     -1.73989167017800
  H   3.70049570963017     -7.39058148945741     -2.24533763322101
  H   1.49896383902955     -4.38899711759558     -0.12660954697994
  H   5.71153136846624     -4.74872989093454      0.46128386029533
  H   5.77772828834666     -6.63063484117903     -1.12645124102072
