22
Coordinates from ORCA-job 738optt
  C   1.26018523320383     -0.07714635921723      1.82866876060777
  C   1.27451925922659     -0.22587153797877      0.42943512130317
  C   0.12827905412307      0.34449918797556      2.46746831866188
  C   -1.05674836008127      0.67882238080993      1.74796055930637
  C   -1.03212843745078      0.53562914325485      0.31831993568257
  C   0.13837468046920      0.03776100834288     -0.31597807370574
  H   2.16651954340186     -0.58723773519277     -0.06921945546554
  C   0.22840483888371     -0.27464059116884     -1.75538429188053
  H   2.15223114556640     -0.30831309252158      2.40014341472139
  H   0.11563809429057      0.44976009766061      3.54697933491837
  C   -2.19759257083650      1.14582342985965      2.40737086987631
  C   -2.19952792803000      0.96681094931487     -0.37657870738495
  C   -3.38658040862200      1.52727379192199      1.73199109916606
  C   -3.29546595415843      1.43154834490782      0.27942159171399
  O   -4.43303161762784      1.93841706563358      2.29102788836045
  H   -2.19962478087281      0.95844573888017     -1.45850243142989
  H   -4.16403817740793      1.77214689319016     -0.27484839352767
  H   -2.18113511870893      1.23911900119388      3.48834660825451
  C   -0.70976179157808     -0.79467831769504     -2.54288345254501
  H   1.21633943083090     -0.12088159130555     -2.18486597731478
  H   -1.70244955874162     -1.02205734332236     -2.17786586602090
  H   -0.49223657587990     -1.02835046454385     -3.57789685329786
