42
Coordinates from ORCA-job 744optt
  C   2.11596111603523     -0.53878255544022      1.56589421648854
  C   2.98517867004984     -1.61826988974922      1.33445410650631
  C   2.23253072273061      0.22597623296285      2.70534697376083
  C   3.96602457880209     -1.92582705700155      2.22538691825264
  C   4.16166456382559     -1.17683689084827      3.43157618009586
  C   3.25416889569702     -0.07565352823612      3.66518081500167
  H   1.33935624837634     -0.33044607618015      0.84403246020649
  C   1.26355672088165      1.38757754625079      2.88310730633740
  C   3.39701810186892      0.70301284947593      4.89334152454084
  C   5.17363990747759     -1.54622841527171      4.35089913756083
  C   5.16079518457887     -0.94620667415993      5.62798780446516
  C   4.29819810568499      0.15387060289205      5.90091340108890
  O   2.78817466806928      1.76750328920697      5.12251220072356
  C   4.29870933151648      0.76653927829596      7.16665219802647
  C   5.95868795288330     -1.39912028496222      6.72799266290027
  C   5.09437027830153      0.31940804092433      8.19030427895814
  C   5.92528783814323     -0.79390793323448      7.95406698313748
  H   3.63158435559730      1.60956387152625      7.29461401289176
  H   5.07496132017178      0.79633757470995      9.16222500895344
  H   6.58267114903260     -2.27074502053727      6.60948732925863
  H   6.53917238905757     -1.18910530974704      8.75644878612977
  H   4.57271541767320     -2.79694595232782      2.02729807804524
  C   6.23304591544015     -2.56200462656338      3.94864727846200
  H   2.85899395467688     -2.22665892220506      0.44510317834231
  C   -0.06595754826703      1.21201715105823      2.14797316098711
  H   0.04483249414199      1.29619788461206      1.06408971251535
  H   -0.75473645187887      1.99976218551410      2.46191141302312
  H   -0.52525337794666      0.24654256554315      2.36786367809817
  C   1.92973029479217      2.69146899571198      2.43360976252496
  H   1.05358811436718      1.48446824609588      3.94497270934291
  H   2.16469505785466      2.64008936695797      1.36600545549665
  H   2.84383317551933      2.85943557349847      2.99882353173873
  H   1.26127146506399      3.54107603923854      2.59892766823624
  C   5.97579475222036     -3.97488529619994      4.48947660537629
  H   5.98343352313899     -3.99950311614531      5.57980645066610
  H   6.73134144721689     -4.68050070415762      4.12915788363223
  H   4.99423948467517     -4.32489390441471      4.16396610488307
  C   7.68187431008541     -2.10835862078234      4.19163699551420
  H   6.18499457744527     -2.64341072534972      2.86444061954366
  H   8.37000219549493     -2.78737418947219      3.67945497786706
  H   7.96840408366643     -2.08258396340938      5.24040346332741
  H   7.82865501583692     -1.10526763807968      3.78841696709149
