18
Coordinates from ORCA-job 74optt
  C   1.61067380535548      1.24462366842604      1.56722829405922
  C   2.17830200957560      0.03013483144624      1.82091347587732
  C   0.54392232663298      1.50264509160493      0.59851426478844
  C   0.10248542073242      0.31276823002081     -0.11132036522247
  C   0.71228506289946     -0.94918683113702      0.17155537949750
  C   1.73584849798826     -1.09229748167790      1.12239209164266
  C   -0.96078779464251      0.39592778567925     -1.10942571881609
  C   -1.33234248263865     -0.86007710710358     -1.76471397817445
  C   -0.73479553351111     -2.06060929379873     -1.47943032844266
  C   0.26858449820081     -2.09076240500392     -0.52700040866735
  F   2.05175361234709      2.31112144088493      2.25473020193037
  H   2.96430092903588     -0.03893108852092      2.56359327812307
  O   0.11746674997064      2.65137632338917      0.46189301560608
  O   -1.56071792563855      1.42543629674652     -1.43694522695538
  H   -2.12161697849898     -0.78550903064185     -2.50195042229578
  H   -1.02172122789656     -2.98136402245905     -1.97290963137211
  H   2.16806693291477     -2.06486313752367      1.30491978960006
  F   0.84748209717295     -3.28411327033120     -0.25742371117841
