18
Coordinates from ORCA-job 751optt
  C   1.31278888690681     -0.04701647307555      1.97111850859286
  C   1.22508931109890     -0.30496150826205      0.58899333234481
  C   0.22272536225871      0.47228032477267      2.62866834763758
  C   -0.97694447982744      0.75184011594026      1.95567459890352
  C   -1.07319321335768      0.49410984326975      0.56282435307410
  C   0.06607964475470     -0.04150939156876     -0.09308755746964
  H   2.07913219208570     -0.71475535873394      0.06099797620880
  H   0.00205131866735     -0.24174499148012     -1.15758632362734
  H   2.23136329514155     -0.25764256351751      2.50545533746024
  H   0.24470450050732      0.68630324385228      3.69050585056561
  C   -2.11043092082498      1.30756324188901      2.71930984917108
  C   -2.27379123167281      0.76704722501558     -0.13534595854636
  C   -3.28664619207014      1.55723580950991      1.95248375091104
  C   -3.31901639010753      1.28367957038058      0.59508187124523
  H   -4.15221018610079      1.96488103264323      2.45513875443548
  H   -2.36278796789964      0.57610450167283     -1.19496995944156
  Cl  -4.82228424612635      1.62656072331677     -0.26663308550377
  O   -2.02106968343368      1.53299465437507      3.94543035403827
