19
Coordinates from ORCA-job 754optt
  C   1.32657045113407     -0.08494860449055      1.77563934056417
  C   1.26184176722166     -0.36185349108016      0.39202437330589
  C   0.24574590073565      0.43624598416827      2.43017820640190
  C   -0.98490025506075      0.72305838450545      1.75840853188962
  C   -1.02437974365581      0.43405376663919      0.36269859930835
  C   0.10327964562747     -0.10378468731139     -0.29253169138339
  H   2.12562592570106     -0.77448287275028     -0.11376031360594
  H   0.03322055626209     -0.30943895967844     -1.35571829806495
  H   2.22869704173320     -0.27853220411887      2.34300415462353
  O   0.36516814048623      0.68532048502735      3.77316269462866
  C   -2.10701164993936      1.26005341334619      2.40763413673792
  C   -2.24017826826830      0.71291972399022     -0.32246684575305
  C   -3.32908231564573      1.54538151125096      1.73821941384439
  C   -3.32174563656951      1.23172829465829      0.31291319364370
  O   -4.34783316601645      2.02551085577533      2.29269482883266
  H   -2.28432861051744      0.49686459774696     -1.38681571376479
  H   -4.24043435408414      1.43770751965533     -0.22581469606198
  H   -2.10868970182862      1.49143500115017      3.46922336587246
  H   -0.47235572731530      1.04667128151595      4.07963671898080
