24
Coordinates from ORCA-job 758optt
  C   2.16735686899747     -1.08976685736027      1.74103378383397
  C   2.99992059344664     -2.21886813210342      1.69903217494886
  C   2.25207618449070     -0.17024001066397      2.73842360017973
  C   3.91810467563279     -2.40286581482303      2.69520943161497
  C   4.05274061789680     -1.48119968698016      3.77388859979433
  C   3.19395722156154     -0.34595052775299      3.77169285351539
  F   1.25461496200779     -0.94021560865067      0.74189986182629
  H   1.61149579321470      0.70174161809062      2.76686048778746
  C   3.25732044987846      0.65779621221504      4.83018613316561
  C   4.99095791789176     -1.67740182291593      4.80022293580498
  C   5.08727353003033     -0.75054888233447      5.83642474415883
  C   4.24207858577915      0.40373353168412      5.87139140116912
  O   2.51679697231647      1.65769318442332      4.83478197599545
  C   4.35665418173769      1.32269895798929      6.92924052895739
  C   6.02855525171996     -0.90548263721597      6.90148730215711
  C   5.26479063490414      1.15726512917551      7.94407962286066
  C   6.09117359686044      0.02082454512519      7.88863656440114
  H   3.69061266753036      2.17657803217747      6.90757767973308
  H   5.36426614988026      1.85531122055696      8.76364708113607
  H   6.69450979848359     -1.75916126355889      6.92264573118060
  F   6.99917586884519     -0.13965853450129      8.88650914614875
  H   2.89863336316867     -2.92162014846844      0.88138106136283
  H   4.56649588255117     -3.27180205087610      2.67572931604375
  H   5.63654823117382     -2.54736045323189      4.78435798222350
