18
Coordinates from ORCA-job 75optt
  C   1.62851522339922      1.29818605043374      1.59666990280502
  C   2.19195164074257      0.07249677286144      1.84254274372472
  C   0.55681365513253      1.50454654125229      0.61536454672640
  C   0.09908498582711      0.32570102946450     -0.10992449033196
  C   0.69463817403339     -0.93860600972904      0.15861260116829
  C   1.72496495822186     -1.01590738368935      1.12988114933645
  C   -0.96606012888119      0.41711837163989     -1.11029657425889
  C   -1.32362205420257     -0.84166550466277     -1.75453742673575
  C   -0.70499144434486     -2.00975560626957     -1.43858533304532
  C   0.30731316192629     -2.11762850826860     -0.49435505737619
  H   1.95333519562521      2.18564476198684      2.12452395675646
  H   2.98229230073890     -0.07045544203017      2.56909660321022
  O   0.12284025343955      2.65321325371521      0.47712832241845
  O   -1.55681622627844      1.45424295931579     -1.42858209838884
  H   -2.10730051153663     -0.81419791311617     -2.49971220074140
  F   -1.08647537570719     -3.14997971629713     -2.07295010413651
  F   2.28356270307444     -2.21851525916589      1.37764141918040
  H   0.76913348878980     -3.06808839744099     -0.27789796031156
