27
Coordinates from ORCA-job 760optt
  C   1.63770632951280      0.10106636793025      1.86319565864323
  C   1.61286527721990      0.46005751645287      0.49857391750297
  C   0.44149294371989      0.09028240974216      2.54758550530688
  C   -0.77859168740994      0.42206971076291      1.93922292487267
  C   -0.79923690112673      0.78491762082306      0.56431807680094
  C   0.43820002365476      0.78965249289677     -0.12766043028302
  H   2.54391155481105      0.47462115020977     -0.06100374767315
  H   0.44205737264079      1.06359845477859     -1.17808218194240
  C   2.94281698726921     -0.26422398721996      2.54039596893059
  H   0.38811095478203     -0.17751537973843      3.59845967962272
  C   -2.01033015191603      0.38444989738631      2.75060290659245
  C   -2.02248505321310      1.12377045809820     -0.05982359234005
  C   -3.19278221595212      0.74061509405333      2.04546000661729
  C   -3.17764292396025      1.09195648916808      0.69728258827594
  H   -4.12331398941779      0.72892681512060      2.60073600243079
  H   -2.03755261643335      1.40018750422896     -1.10707338292078
  H   -4.12007623952281      1.35252214048636      0.22220337632164
  O   -1.97832990856493      0.05983687031291      3.96217607135238
  C   3.26016121611991      0.67700723099978      3.70444517875924
  H   3.29474900998549      1.71372456586121      3.36709115329259
  H   4.21991962908781      0.42562279170488      4.16458052069059
  H   2.48550955773104      0.60322628449382      4.47007247230420
  C   2.93937781489700     -1.71696795102781      3.02235523722752
  H   3.73850021030681     -0.15855052719007      1.79505982144963
  H   3.89652829297203     -1.98428368809434      3.47904491864689
  H   2.74358469449427     -2.39997347257175      2.19471411629605
  H   2.15339981831221     -1.86314685966847      3.76589723322209
