24
Coordinates from ORCA-job 763optt
  C   2.15037301709328     -1.07881678485902      1.76048892636462
  C   2.99743810611761     -2.20333542848590      1.74637664927023
  C   2.26419204352807     -0.16120256422470      2.75624969161208
  C   3.93299917595128     -2.39873647944015      2.70862184570040
  C   4.08000455582422     -1.46551358828261      3.77893653077559
  C   3.21751475814568     -0.32834980168297      3.77955266145803
  F   1.23517488665244     -0.95514544416991      0.77203692071990
  H   1.62399683131600      0.71151427602313      2.78872030944106
  C   3.28292578712127      0.67733775913856      4.83209850523050
  C   5.02038889440070     -1.65495305927730      4.79584413304932
  C   5.10949243750082     -0.72802304839059      5.84078355753698
  C   4.26505394856660      0.42134626709210      5.87878096200686
  O   2.54422159631219      1.67895764018300      4.83593699000088
  C   4.36955500186542      1.32987718176355      6.94852869285019
  C   6.03643465056632     -0.89073887676491      6.91399766230932
  C   5.26746879514900      1.14272277254184      7.96802790545090
  C   6.11176454712772      0.00821569522901      7.93910334390867
  H   3.70333665768924      2.18389439473450      6.92919613028623
  H   5.33272118304396      1.84887435440614      8.78627837855046
  H   6.68686411041615     -1.75905249362438      6.90100821332420
  H   6.82553012096402     -0.15056541491424      8.74016709063712
  F   2.84865786390128     -3.09442797184883      0.74479579432032
  H   4.56184427278952     -3.27900791002990      2.65815641138753
  H   5.66815675795711     -2.52336147511639      4.78267269380845
