17
Coordinates from ORCA-job 764optt
  C   -3.00333027750490      1.47300226923692     -0.70055707920209
  C   -1.99273610715262      2.29428356612221     -1.14409483248617
  C   -3.28050438580589      1.27112821669003      0.70213544119692
  C   -2.40484421391656      2.00342277152554      1.58644897550863
  C   -1.39959902146713      2.82011406991255      1.12245886549809
  C   -1.16572529712008      2.98574313671871     -0.24904854212327
  O   -4.19743541928422      0.52365610721553      1.11538877929649
  H   -0.76185062445396      3.35330266469537      1.82184260353681
  N   -0.11365724356861      3.83298118797575     -0.72099234204180
  H   -2.57063435037393      1.88461510723274      2.65086181073154
  C   1.16626883949319      3.43739373505565     -0.95942303651657
  O   2.04269809633999      4.16961940693856     -1.36084708532290
  O   1.40608121499040      2.13531844056490     -0.71211788025386
  H   0.57834271643372      1.72914761632029     -0.40134576914427
  H   -3.63238386773945      0.94357503911173     -1.40665016210145
  H   -1.81654650226749      2.41813612272503     -2.20889418187537
  H   -0.27635355660240      4.80904054195843     -0.91025556470071
