18
Coordinates from ORCA-job 765optt
  C   -1.66495403385842      2.63330288491290     -0.45278895629129
  C   -2.51098363107090      3.74505605867751     -0.44919362030210
  C   -2.12497916251428      1.36638938704640      0.04888279390917
  C   -3.48523848689148      1.34406112990116      0.53688575340519
  C   -4.27707650983495      2.47030534901740      0.51725795420920
  C   -3.80581171031950      3.68808549804508      0.02577113873268
  O   -1.41481423195608      0.31158221246176      0.07952203814638
  C   -4.06620985002944      0.07366461708433      1.07748237262550
  C   -0.31998129465508      2.86779866591127     -0.99429610422985
  O   0.07422099649617      3.93363679450519     -1.43005995659221
  O   0.51148043900654      1.80719257458398     -0.99346377864829
  H   1.33185042870916      2.14613825442269     -1.37735798414645
  O   -5.20243655063442      0.00129510544583      1.50124846880063
  O   -3.24975474600269     -0.96145725897395      1.05638127854124
  H   -2.10633582844616      4.67064663011123     -0.83990023955796
  H   -4.43810865240908      4.56548455901001      0.01629770305113
  H   -2.34970094202266     -0.60678553267834      0.64754088443423
  H   -5.28617623356666      2.37119307051547      0.90064025391280
