24
Coordinates from ORCA-job 769optt
  C   2.13045400416935     -1.06315522211710      1.71188762514811
  C   2.97768930295730     -2.19737300835336      1.69447613066077
  C   2.24162184191296     -0.16058103089219      2.73673226114706
  C   3.88059189911312     -2.36426101454871      2.69372860299629
  C   4.04533991382541     -1.46602188915685      3.78260441383373
  C   3.17827391971103     -0.33227207947766      3.77408514242134
  H   1.40696508980851     -0.92237600458394      0.91936512937471
  H   1.61329340959393      0.71967508144773      2.78843595253840
  C   3.24683277566651      0.66432633350174      4.83769977553562
  C   4.98675598889347     -1.67252636683513      4.79324127320543
  C   5.08388762056620     -0.74009589717607      5.83445706996917
  C   4.24092595571709      0.40948757108134      5.87597873604974
  O   2.50705727408396      1.66416037431169      4.85754588815349
  C   4.36203041387522      1.32616915440293      6.93675615127415
  C   6.02498933620778     -0.89654122796412      6.89597047590796
  C   5.27608748424435      1.14729710688645      7.94363071670379
  C   6.11813015437579      0.01152731585219      7.91195475696033
  H   3.69716495494145      2.18130124871426      6.92002711315733
  H   5.35633935284958      1.86204621655257      8.75323995747691
  H   6.67475722461363     -1.76517452343856      6.87917359002840
  H   6.84543212621328     -0.14001224422030      8.70227543827723
  H   2.92469874983045     -2.93674803868348      0.90515150112491
  F   4.68574555599484     -3.45707134759915      2.66506299943771
  H   5.63104565083467     -2.54026050770425      4.77284929861732
