28
Coordinates from ORCA-job 770optt
  C   -2.47140521665170      2.91290387964201      0.50946979276557
  C   -3.33023026517036      4.00376291339574      0.58517699788502
  C   -2.97487179535149      1.56083221203398      0.44281385013844
  C   -4.41340061488830      1.43604010107751      0.47251126898682
  C   -5.23643465082657      2.55238096654586      0.57096232664008
  C   -4.71135504253474      3.83980155048142      0.62226235516035
  O   -2.20830552402678      0.55457478635399      0.36337331469239
  N   -1.05347767103135      3.07386299438282      0.50443528094503
  C   -0.55874590070690      4.38211851244502      0.83327856702924
  C   -0.40300788948704      2.55167272042303     -0.68399456124276
  H   -0.77133294473334      1.54600835313843     -0.87124626703921
  H   0.67799926649069      2.51537874253120     -0.51946381092306
  H   -0.59645232838396      3.19355305625595     -1.56255181432096
  H   -0.99102714631818      4.72549966329235      1.77432350976240
  H   -0.77568255490208      5.14251407343911      0.05905357022668
  H   0.52723661812298      4.32979002312471      0.94560504871032
  N   -4.94787992882086      0.11605312834227      0.38396829274533
  C   -4.53190408524622     -0.76538071706115      1.45996437384965
  H   -4.79908526258680     -1.79605347292392      1.20834114833511
  H   -5.03084085636831     -0.50243961209327      2.41038468219473
  H   -3.45320544437631     -0.69248417076608      1.57497228104733
  C   -6.36122476802992      0.01400998804509      0.14676886480991
  H   -6.60975259590295     -1.03109342969926     -0.05512006117546
  H   -6.64440491908913      0.61382807756043     -0.71947877121154
  H   -6.97715034023896      0.34121376864295      1.00600639985604
  H   -2.92487334086514      5.00787301502643      0.61546947643252
  H   -5.36636465980766      4.69932326106592      0.68944441103314
  H   -6.31182013826844      2.42757561529736      0.60915947266683
