40
Coordinates from ORCA-job 773optt
  C   1.74302624135046     -1.24384929531009      2.01619999545185
  C   2.62742165487614     -2.33796976146264      2.02094432339489
  C   1.89341887544374     -0.21917140152070      2.93616520535590
  C   3.66297932278927     -2.40375696790306      2.90034621097056
  C   3.84927917331962     -1.39299700869551      3.89419854911578
  C   2.91290645828819     -0.30095727609806      3.94850117639568
  C   2.94690691843249      0.60930155890083      5.09314357429221
  C   4.91526219990385     -1.51303596928438      4.80784440594017
  C   5.06301152400996     -0.56259954328235      5.83248752781784
  C   4.10013767212217      0.47219460080902      5.98848600570485
  O   2.07495709273370      1.46131038209398      5.34047981794778
  C   4.23535043486093      1.40162697006889      7.03239537128316
  C   6.14395064964634     -0.59007100747500      6.76519723287457
  C   5.28714019857273      1.35374019132993      7.91512649809487
  C   6.25063006342796      0.33545526031929      7.76764351793818
  H   3.46792485091491      2.16193795150896      7.10680392488343
  H   5.37969475771126      2.08427108423432      8.70907907828969
  H   6.89680019374567     -1.36005124472270      6.67226570723778
  H   7.08853632527344      0.28337731195259      8.45464029508216
  H   2.49448669707524     -3.12436786738332      1.28517725971820
  H   4.35841879289524     -3.23047855401925      2.88424553101875
  N   5.81277439823485     -2.62093780100016      4.66693748058136
  N   1.03960541438181      0.88848179429435      2.87025137793530
  H   0.98135224072180     -1.18771501772481      1.25294726501839
  C   1.63464687372364      2.20574214682747      2.77566220617621
  C   -0.16185772419452      0.78447161613270      2.09081612180197
  H   -0.69206411945031     -0.13743547221533      2.32960659116104
  H   0.01665147992059      0.81175521908495      1.00100296009538
  H   -0.80722784359333      1.62988678449917      2.33967860677000
  H   2.64768774192147      2.19719678607804      3.16006780991805
  H   1.06198901343700      2.92627049034258      3.36197323174594
  H   1.65976938134191      2.53092480491888      1.72227650256132
  C   7.11879923365820     -2.35959236543211      4.11616503761190
  C   5.77371095168179     -3.65346340982786      5.67189645505622
  H   7.55456871180734     -3.29138264296863      3.73702849312127
  H   7.83780786559511     -1.92800284969600      4.83255445040298
  H   7.02063271578037     -1.66356352823521      3.28274827350222
  H   4.73491028620932     -3.85396985031244      5.93511187405187
  H   6.31461559093575     -3.40955653120560      6.60100796099722
  H   6.21148769049336     -4.57532958762066      5.27135609268245
