30
Coordinates from ORCA-job 781optt
  C   2.01981715766469     -0.74323305090705      1.79368457146030
  C   2.92898640142067     -1.81654440491856      1.60533998413681
  C   2.16082128372359      0.08999550702635      2.87284482493117
  C   3.93750874617678     -2.00266717419804      2.50858944790273
  C   4.11446494616793     -1.15196479778070      3.64245655553499
  C   3.19213003073461     -0.08347439886644      3.81370498252696
  H   1.21890625712597     -0.59288881288135      1.07761713304277
  H   1.48055849562200      0.91614353550161      3.04063968989090
  C   2.76015262327522     -2.72472482956377      0.41708762762330
  H   4.63795863322940     -2.82182218269381      2.37128027913334
  C   3.28233585219951      0.84289437147523      4.94007185027242
  C   5.14564819083356     -1.34039674215905      4.56333631153020
  C   5.28671473742693     -0.47635062350415      5.65517869690685
  C   4.38786161160936      0.62129768035770      5.87403010814375
  O   2.44958050128241      1.76156495628067      5.07150103862774
  H   5.84724982631236     -2.15679403511060      4.43461869328633
  C   4.59399163420406      1.47276413570394      7.00015784872465
  C   6.34990218917143     -0.67842720398094      6.58526297144443
  C   5.64112528627637      1.22934127353702      7.86288067387560
  C   6.52076271515966      0.14697503611820      7.65404704302434
  C   3.70582567333647      2.65385867425348      7.29517415913495
  H   5.78927496124647      1.88351114487710      8.71425472558800
  H   7.02379141367224     -1.51139368519044      6.41610704437190
  H   7.33605789782205     -0.02304854821329      8.34912316943154
  H   2.81309378306058     -2.16025154558361     -0.51753988696836
  H   1.78582578533852     -3.22003751522231      0.43836381111101
  H   3.53220157605105     -3.49429481106043      0.39374998429997
  H   3.68700803943043      3.35198027159271      6.45950286655311
  H   4.06398675391912      3.16282580661342      8.19269457836246
  H   2.67080699650608      2.34565196849714      7.43527921609531
