40
Coordinates from ORCA-job 784optt
  C   2.11033055145360     -1.24790583320975      2.09399045197856
  C   3.10958550090199     -2.24197600496544      2.02298086043764
  C   2.16796347069024     -0.25626586863174      3.05864705344117
  C   4.16177931754001     -2.23203664884738      2.88088588456029
  C   4.25423886436411     -1.25593555198957      3.92223797097097
  C   3.21244194214098     -0.27164405464538      4.05136695423823
  C   3.19002995671224      0.58777962499096      5.23511078022473
  C   5.33035390464994     -1.30923806235648      4.80801981946725
  C   5.40733003056878     -0.41680087979621      5.88173141481640
  C   4.36584257650845      0.51384329605672      6.10631851348568
  O   2.25001491093796      1.34987935494997      5.53669773660126
  C   4.42644122706515      1.38702604425297      7.21320888557235
  C   6.50243707375736     -0.40196368093550      6.79507323448112
  C   5.49331003271922      1.38770544689691      8.07807130708517
  C   6.54984287601658      0.46874910525957      7.84251524162833
  H   3.58572253353998      2.05730973094286      7.33166197417525
  N   5.62010338717433      2.28326561287703      9.18691974214389
  H   7.32129058032397     -1.09452880601353      6.62995398154681
  H   7.41368863015104      0.48421355385589      8.49812113279198
  H   3.04434890931591     -2.99977812842858      1.24942190043397
  H   4.94462300520780     -2.97868064107800      2.81029702820047
  H   6.09854992692681     -2.06145098026087      4.67018973765653
  N   1.19901908469383      0.75522236719423      3.06060222105614
  H   1.33061447703191     -1.23881996466602      1.34710384449996
  C   1.65504400715620      2.12949090862704      3.00573863984060
  C   0.00199912676189      0.55936069579343      2.29201100856800
  H   -0.42340565029016     -0.42375794268512      2.49338353167257
  H   0.15902322832604      0.65480332606341      1.20254237898304
  H   -0.72447306791783      1.31962832943751      2.58772055687568
  H   2.66525426113763      2.21352727896929      3.38802095602080
  H   1.01386930431768      2.76734030337396      3.61646848733283
  H   1.63892111339295      2.48861514790231      1.96291183787243
  C   4.66759181781712      3.36974713288415      9.20627354744919
  H   4.69180944008786      3.90077712025791      8.25546642071597
  H   4.93790565163672      4.06225704167423     10.00609740304044
  H   3.63421235453573      3.02996758295442      9.38216497927489
  C   5.64648060703743      1.60623981671901     10.47183906749135
  H   5.92114908254443      2.31730036818373     11.25460030080663
  H   6.38033763712035      0.80310747577307     10.46306664664686
  H   4.66574831594335      1.17004638261890     10.72400656591392
