34
Coordinates from ORCA-job 786optt
  C   3.63429209662589     -0.09201723573735      2.72182647680770
  C   4.25988830624270     -1.33095789047528      2.41807175080429
  C   3.92987222674652      0.55985477381803      3.88314497473470
  C   4.86398611352800      0.03011343128367      4.82106999686249
  C   5.49186722633812     -1.21859214474086      4.51156526796077
  C   5.15666031580832     -1.87121412395811      3.28574946114550
  H   2.92101557866133      0.33454193891259      2.02763750248476
  H   4.01937597795693     -1.84229294646303      1.49340345984676
  H   3.44792745962996      1.50306134506679      4.10465380417879
  H   5.63948445218340     -2.81663102432593      3.06298775641744
  C   5.19268190013879      0.68531833452461      6.03355781323302
  C   6.11299744600402      0.13287268991650      6.92387237517049
  C   6.73920444670378     -1.13199504485118      6.60515678805908
  C   6.40403887663557     -1.76275797168916      5.40444105893616
  C   4.49824365286980      1.98193210052351      6.29731296619493
  H   6.87456267906037     -2.71135625825751      5.16377602005824
  C   6.45916922994590      0.83233581775276      8.19846969208743
  C   7.67065227784615     -1.71021995217895      7.50000548033124
  C   7.40140743036299      0.16422992256000      9.02551806183362
  C   7.97213182003162     -1.05347767774097      8.67406335673088
  O   5.94285156598156      1.92907604057360      8.49460844246480
  H   7.66345809416148      0.65364372721195      9.95504720228879
  H   8.12944991739527     -2.65755230193336      7.24676830392754
  H   8.68768412503269     -1.50567230719623      9.35580028931148
  C   3.25253745598225      2.00067790369564      6.91709518446332
  C   5.02132454750594      3.17746130332882      5.81401612049937
  C   2.55691008845146      3.19041228227868      7.07511096576793
  C   4.32873158536641      4.36880060672431      5.97020481810720
  C   3.09204392179794      4.38184479644144      6.60288382339237
  H   1.59398737053409      3.18804356902090      7.57176049023404
  H   2.55120770271641      5.31184828293112      6.72742676923495
  H   2.84061334249556      1.07168192675076      7.29167770976961
  H   5.98991822987529      3.16663828378567      5.32958004130602
  H   4.75739253938329      5.29230780244655      5.59979577535405
