20
Coordinates from ORCA-job 793optt
  C   -2.14551674763679      1.09799846385001     -0.07576636099348
  C   -2.08433848339515     -0.31167737164917     -0.14191507874814
  C   -0.92344281362843      1.86519544900748      0.12958757714714
  C   0.29816416807959      1.10376911708859      0.14559815375836
  C   0.32244042115405     -0.26245033157867      0.02511735798827
  C   -0.86263804941631     -0.98737716529256     -0.11877588426775
  C   -3.26802783832580     -1.19586891836974     -0.16850639309372
  H   -0.84623223502485     -2.06917685400775     -0.17579530839685
  C   -3.40521080502873      1.79244968248374     -0.31526536263319
  O   -0.90614036680413      3.11355027179373      0.27082448438814
  H   1.21252450379694      1.67403190889907      0.26482452530377
  H   1.27176193446493     -0.78963933441741      0.04982808696002
  C   -4.44570665373811     -1.02626856993087      0.43002320425105
  H   -3.10318783336288     -2.13965160081185     -0.68518963433455
  H   -4.67454995361550     -0.13529179603332      1.00028987424800
  H   -5.20768646411726     -1.79462830976500      0.37388589657249
  C   -3.70535554101530      3.08566120882037     -0.12925072915330
  H   -4.18654190159151      1.17379225451704     -0.74528027245408
  H   -2.98948594111430      3.78064763438407      0.28025066160582
  H   -4.68972939968030      3.44344426101223     -0.41448479814800
