18
Coordinates from ORCA-job 796optt
  C   1.22804683869251     -0.02543203692414      1.92607738003581
  C   1.16483433453986     -0.29304743870340      0.54741422031068
  C   0.15506806262677      0.48969960656940      2.59918791596458
  C   -1.04291708237692      0.76537678460438      1.91781689277179
  C   -1.13836777995750      0.50706468592493      0.52238646707728
  C   0.00413384272214     -0.02913308602579     -0.12839044882564
  H   2.02902912723107     -0.70216786457600      0.04024397522430
  H   -0.05343848141895     -0.23268490276724     -1.19253781965329
  Cl  2.72699317594029     -0.36988154157749      2.77108720890460
  H   0.18640285529101      0.70095000819255      3.66053292776188
  C   -2.17307929299816      1.32032627202628      2.68569981301124
  C   -2.33932666043615      0.78338893883603     -0.16645894368145
  C   -3.34268736652667      1.56842207627145      1.91269781688246
  C   -3.40275324755752      1.30453030146085      0.54818372734961
  H   -4.20052693308129      1.97760669559062      2.43285334792550
  H   -2.41185419098547      0.58677691456583     -1.22889718950512
  H   -4.32902151981172      1.51920786906497      0.02175868347465
  O   -2.07497568189333      1.54193671746674      3.91439402497112
