15
Coordinates from ORCA-job 799optt
  C   0.11059800834294      0.85185180888087     -0.86439776462157
  C   -0.64853884855802      1.94873110065509     -0.56854578976620
  C   -0.38262612408263     -0.49874205696637     -0.70213157237051
  C   -1.73728155998144     -0.57803670793894     -0.19902393239850
  C   -2.47697045110169      0.53731934093308      0.08778467618010
  C   -1.97043694450878      1.84273312510762     -0.08536114745605
  O   0.29828385736719     -1.50984553990832     -0.96987561866425
  H   -3.48258868761938      0.36963026992018      0.47043918116176
  C   -2.70468754202096      3.06657430415939      0.19784317392657
  H   -2.14938759843159     -1.56946999764163     -0.05271686820213
  O   -2.27332339226718      4.19259323013394      0.09943298735911
  O   -4.00753622329273      2.93386159957208      0.61255558686208
  H   -4.23863386567793      2.00064603299273      0.61932267387065
  H   1.12285443973275      0.96023114888818     -1.23641795409403
  H   -0.24859506790053      2.94738234121205     -0.70215763178704
