30
Coordinates from ORCA-job 79optt
  C   2.14945244991108      0.77627043568724      1.65947558893810
  C   2.73188823882474     -0.44745118978445      1.43402081275681
  C   0.87972905014416      1.14711776617903      1.04524902415640
  C   0.24304393395344      0.15405513997980      0.17973205091544
  C   0.84839481716109     -1.11801509228439     -0.00427493154460
  C   2.10398873137342     -1.38484902990460      0.61823299703036
  C   -1.00928902161392      0.50129873049330     -0.50389272198252
  C   -1.51498346073290     -0.51978343274224     -1.40768177409350
  C   -0.92157157021859     -1.73004874383573     -1.56178210766227
  C   0.24573009503343     -2.09626838197778     -0.85544134047546
  O   0.43422346535342      2.27124530368240      1.29649230483361
  O   -1.61743922687678      1.56397891604700     -0.36833736656620
  H   -2.42027817410135     -0.26553384089696     -1.94572211307811
  H   -1.34745459220563     -2.46847299295951     -2.22933822289052
  H   2.58837147061512     -2.32790012707820      0.44923112892453
  C   0.67074181285298     -3.47724040570863     -1.09240584235523
  H   2.62140781367154      1.51217040407291      2.29636219036317
  C   4.03819169450279     -0.73719303212645      2.07957928614202
  O   4.63121157275035      0.01005165553943      2.81483739694622
  O   4.52566859835389     -1.95405418885278      1.76194282251855
  C   5.77535926726747     -2.27174912305516      2.35323277979029
  H   6.02936826173116     -3.26772047888567      2.00049885644703
  H   5.69985589368654     -2.25916388368723      3.44048468488368
  H   6.53693421565232     -1.55335711677989      2.05010386674058
  O   0.26537019000700     -4.17740013370241     -1.99855698539152
  O   1.54406553820502     -3.99974666237288     -0.18824611482384
  C   1.93229404649127     -5.33877766164010     -0.43463552370089
  H   2.63518095411076     -5.59482143053174      0.35506997468898
  H   2.40668280102175     -5.43371563731001     -1.41170798708218
  H   1.06958113307431     -6.00451576556417     -0.40589273442890
