20
Coordinates from ORCA-job 800optt
  C   1.31980745701230      0.00863341132740      1.76560254491726
  C   1.25177111186528     -0.28340216401347      0.38259771915038
  C   0.22814213182099      0.51589251522711      2.41911253888279
  C   -1.00569650924631      0.77120845169969      1.74801684708587
  C   -1.06142525649028      0.46288188441143      0.35024272564277
  C   0.07397234038828     -0.05631148566208     -0.28900087235852
  H   2.12630979523262     -0.66843077293041     -0.12905286439071
  H   0.00966973706606     -0.28013085163992     -1.35005046687796
  N   2.55373631635510     -0.18963235898351      2.43803120111529
  H   0.29362192359481      0.73392014481590      3.48147376529607
  C   -2.12828457860679      1.28756391420930      2.39959004755995
  C   -2.28870468925225      0.70271876051827     -0.32979772446887
  C   -3.36422225325088      1.53391890465031      1.73979919619233
  C   -3.37221642198380      1.20428794564487      0.31470638095682
  O   -4.39063196678503      1.99559270011465      2.29713820291186
  H   -2.33965946816707      0.47194325386687     -1.39124895247018
  H   -4.30382968876911      1.38362619862685     -0.21130340856227
  H   -2.07437242978188      1.51686967838520      3.45887184269392
  H   3.04470525674115     -1.00311892037882      2.09370595420500
  H   2.42936719225685     -0.27068120988963      3.43750532251821
