42
Coordinates from ORCA-job 803optt
  C   2.28253287349279     -0.32093639067084      1.57190148669641
  C   3.34639956008666     -1.11709545956345      1.09557399205103
  C   2.27884939470119      0.18091535446467      2.85478668543448
  C   4.39793714301474     -1.40769177369287      1.90437716628467
  C   4.45365517766048     -0.92772041323018      3.24731374343890
  C   3.37144397398246     -0.11674327635148      3.73697000714524
  H   1.46037629515773     -0.10826174023736      0.90359937506377
  C   1.13175080129126      1.08853572345692      3.27563019589688
  C   3.41830986892828      0.35043905362143      5.12659571701575
  C   5.55611945626663     -1.26377241629571      4.03945405841506
  C   5.64321993435960     -0.81633946987677      5.35705492560175
  C   4.59929604411212     -0.02313740735253      5.90221543634859
  O   2.52202524413557      1.03488717178063      5.66308566396901
  C   4.70309981647151      0.42125731778955      7.23338455727017
  C   6.75279476513214     -1.12496630552109      6.20066943313004
  C   5.78359250098835      0.11056029383758      8.01793233109128
  C   6.83674896885889     -0.68347813820706      7.49190155090593
  H   3.88751550162248      1.02442928938729      7.61265019874638
  H   5.83571714444664      0.47073923355699      9.03946375502544
  H   7.55352236774354     -1.73297189632828      5.78818079570670
  C   8.03244922440648     -1.02855751706995      8.35382248632812
  H   5.22075492863610     -2.01762379323183      1.54744711278258
  H   6.34580001046957     -1.87632107507802      3.61944346065652
  H   3.31804054002343     -1.49425650281086      0.07892417824374
  C   -0.13233003640583      0.94334946453771      2.42952949592565
  H   0.00312047210565      1.33023967223940      1.41622789992623
  H   -0.93897512594470      1.51881194187446      2.88930328428963
  H   -0.45313357718559     -0.09745191601854      2.35539793866830
  C   1.59795246139444      2.54784441188110      3.25197616951089
  H   0.88514650184584      0.84868656429668      4.30689275095828
  H   1.86612057455070      2.83547895033974      2.23065911365679
  H   2.45984184689239      2.68095050706543      3.90230749151035
  H   0.80095072957764      3.21106679682599      3.59933168111098
  C   8.79879319113417      0.22602257621165      8.77830273768384
  H   9.10966464422339      0.80316483703319      7.90671242661882
  H   9.68651904691316     -0.03621302007567      9.35970631592644
  H   8.16820909648510      0.86903496406533      9.39583900520910
  C   7.62460013386358     -1.84485401184409      9.58206729794976
  H   8.70262977752850     -1.64428078018527      7.74640987840646
  H   6.95884474390260     -1.26437862859844     10.22405544262915
  H   8.50079060259714     -2.12730449091309     10.17145230583891
  H   7.09497338053280     -2.75124770111235      9.28665045093160
