20
Coordinates from ORCA-job 807optt
  C   -1.93404560559996      1.87777889367984     -0.09143697797261
  C   -2.88750412988508      0.90234525221873      0.05280527229329
  C   -0.51523170546621      1.56276189978753     -0.21490337257677
  C   -0.23198345528426      0.16727717273444     -0.16903519989010
  C   -1.21334236812927     -0.80224576324507     -0.02234615709246
  C   -2.55491385579016     -0.46985676782758      0.09152874577357
  O   -2.21533366851687      3.22597410431338     -0.13326619507324
  O   0.35605754307968      2.45611396879241     -0.34802331546391
  H   0.80325283023930     -0.13877433597830     -0.25438259474348
  C   -3.55064294363879      3.59536879481363     -0.01095668553155
  H   -3.58329776372078      4.68395310430755     -0.05931519414981
  H   -3.98123193352363      3.26643676228492      0.94441006377448
  H   -4.16671646289137      3.18289215851945     -0.82134624644485
  O   -0.75629608092540     -2.11188501295705      0.00084399081661
  C   -1.71690291130009     -3.11412322303360      0.14398173893546
  H   -2.43837803498813     -3.10569691535808     -0.68156494148951
  H   -2.26971865583912     -3.01539700097245      1.08563294881702
  H   -1.18303830250564     -4.06452587001888      0.14162087276183
  H   -3.93347219109661      1.16881504533794      0.14129217899583
  H   -3.33545030421758     -1.20602226739883      0.20566106826021
