28
Coordinates from ORCA-job 809optt
  C   2.50264030708716     -1.42646803884199      1.87183050767598
  C   3.42317629430750     -2.49450038223665      1.96642009428166
  C   2.49544779141364     -0.45771040336791      2.83864621986614
  C   4.30822211986178     -2.57375992825416      3.00879015334738
  C   4.33110397723216     -1.56983716971282      4.04434012512459
  C   3.38696420207927     -0.50345376831426      3.92401487593720
  H   1.80731986971015      0.37766482327169      2.80656683614216
  C   3.31763899540688      0.56720518356692      4.91518860851381
  C   5.22124865597675     -1.61413285800021      5.12044820626741
  C   5.19577101210281     -0.60548159018659      6.09503504892082
  C   4.27121153998982      0.47383772902557      6.01484523493088
  O   2.49889306919768      1.49928742079872      4.82642709743998
  C   4.27042271735788      1.47167800875222      7.00676066501282
  C   6.09098664619992     -0.61490772816914      7.20561801413590
  C   5.14489356315072      1.43614546011304      8.06324931119076
  C   6.06747774477413      0.36846570165353      8.15383781412826
  H   3.54606928020771      2.26955834584759      6.89612711753900
  H   5.13352983900915      2.21130204717461      8.81942555158616
  H   6.80244013579612     -1.43031357908332      7.28276458530620
  H   6.76370066663952      0.32952705461408      8.98462771632028
  H   3.41206685518645     -3.25057106304547      1.19337335223227
  S   5.48194556927386     -3.89134455144235      3.17494624258863
  H   5.94052488261346     -2.41600920395748      5.22038696116094
  H   1.81526405801701     -1.38862436943752      1.03608353561019
  C   5.15156972732008     -4.89356300960364      1.72260491810035
  H   4.13528065909307     -5.28718598671123      1.73049649910038
  H   5.85436074447613     -5.72406547236957      1.76651375694779
  H   5.32082907651904     -4.33254267208361      0.80365095059188
