16
Coordinates from ORCA-job 810optt
  C   -2.15483209483596      1.50643417885884     -0.00000032699588
  C   -2.17742425493035      0.10877249114142     -0.00000114727713
  C   -0.88429562979362      2.21075557354551      0.00000633339757
  C   0.27935629946383      1.35939668441177     -0.00000027276756
  C   0.20484029884261     -0.01257843211983     -0.00000122248680
  C   -1.03316618973221     -0.67174473083892     -0.00000076885271
  H   -3.15031942587746     -0.37859593073530     -0.00000100270018
  H   -1.09333719187062     -1.75257709930023     -0.00000064130292
  C   -3.42996106343942      2.20644098028637      0.00000071497336
  O   -0.78307763283649      3.46434778583256      0.00000152246021
  H   1.23902336402328      1.86474025720933      0.00000042234898
  H   1.12161184351779     -0.59596264668404     -0.00000106896544
  C   -3.67342284048287      3.52387414777189     -0.00000139479037
  H   -4.29416513799720      1.54042938869540      0.00000425195746
  H   -2.86242040454437      4.23663934216599     -0.00000630468094
  H   -4.69902993950691      3.87804800975920      0.00000090568237
