26
Coordinates from ORCA-job 814optt
  C   2.13961168674639     -1.09834576363702      1.74143481406248
  C   3.01219839048433     -2.20577464070059      1.70676574830880
  C   2.23069274928978     -0.19442464494781      2.76121012291243
  C   3.94467400973741     -2.38124300479569      2.69130324408171
  C   4.06811061287420     -1.46859776882533      3.77523102591527
  C   3.18505966632479     -0.35527577164218      3.78527154303295
  O   1.19011947953706     -0.91721249699399      0.75133981602905
  H   1.57550554312356      0.66608327984682      2.80629809077232
  C   3.24847269051705      0.64996300403243      4.84380916635146
  C   5.02209889180109     -1.64963702393201      4.79262265044114
  C   5.10219469638362     -0.72315175516823      5.83835139633011
  C   4.24782559661707      0.41829240173907      5.87794647372847
  O   2.49313847874637      1.63834376925808      4.85385429711411
  C   4.36184539748824      1.35576341477314      6.92629948997881
  C   6.02673453980603     -0.86826262459133      6.92445100225967
  C   5.27838064388384      1.19056152550576      7.92759959534907
  C   6.11699837098960      0.05043885780426      7.92669000598893
  H   3.69263429405165      2.20588016808582      6.89828406952545
  H   5.36305098670147      1.91466291983127      8.72830921374217
  O   6.85393465854188     -1.96429993320634      6.97217400955295
  H   6.83383321047328     -0.12041639495086      8.72073392974961
  H   2.93766691257762     -2.92059871087413      0.89134637635480
  H   4.60977402770880     -3.23744504996831      2.65564857241120
  H   5.70263940464231     -2.48864852162533      4.69918137026380
  H   1.27407548066881     -1.63349740956469      0.11721997634292
  H   6.53139958028364     -2.60175782545278      6.32820399940013
