28
Coordinates from ORCA-job 825optt
  C   1.93576883513517     -1.80817231193021      2.29868907602881
  C   2.79814297762146     -2.93095473374939      2.41272114663851
  C   2.12164935225196     -0.74224221896543      3.14886864564756
  C   3.79967260536385     -2.94903666383555      3.33621962378360
  C   4.02410423639753     -1.85366873835501      4.22790526510126
  C   3.14294481670763     -0.73366686209788      4.11199436130741
  C   3.28466624289970      0.43640856295351      4.97457562115782
  C   5.04988572770056     -1.86599552647721      5.17147352385701
  C   5.23106107849560     -0.76629132763497      6.02420770683630
  C   4.37727817592700      0.37191953092745      5.94446219959344
  O   2.53241450354507      1.42087744879353      4.88941508965923
  C   4.58173034961210      1.46108033041938      6.80979369344295
  C   6.26928949555657     -0.73446012909122      7.00108305471887
  C   5.59086720237644      1.46295075348851      7.74016064295132
  C   6.44354113037264      0.33967100627417      7.82819036664302
  H   3.90398461139517      2.29995681322730      6.70663457942151
  H   5.73612945156536      2.30967451556070      8.39934573284075
  H   6.92890496677358     -1.59266459097235      7.07560943022115
  H   7.24459573505424      0.32952704152237      8.55938087294518
  H   2.64363469579189     -3.77771089279570      1.75311235648579
  H   4.45052992223181     -3.81370945154355      3.41242444372837
  H   5.70898934732507     -2.72316890127243      5.24659327556178
  H   1.48060574600286      0.12979493569578      3.09651516240073
  S   0.65686439078381     -1.79634338291584      1.07683536942096
  C   1.59522818312272     -1.22272892830375     -0.36387602737469
  H   1.98987285635845     -0.22476224022564     -0.18061067996164
  H   0.91336036045393     -1.19623474383489     -1.21408270183630
  H   2.41496300317764     -1.90664929486163     -0.57955183122085
