36
Coordinates from ORCA-job 826optt
  C   -0.69103691101784      0.33183081202371      0.15618307822931
  C   -0.75893046666299     -1.03620833350564      0.06711000516736
  C   0.52926792433661      1.02222557471450      0.26863888639906
  C   1.71024384950489      0.25854733449248      0.27138582796322
  C   1.70342187220162     -1.11156089250337      0.18585090494202
  C   0.44480712521494     -1.87033538945458      0.19397151777864
  H   -1.60989170975486      0.90238471213620      0.12313765624345
  C   -2.07149798674214     -1.66673529903858     -0.10974997516260
  C   0.57024252982523      2.46588089702648      0.33663911132909
  H   2.66098602167730      0.77199254520617      0.32928243592324
  C   2.98636726419373     -1.82080638441410      0.13697101472262
  O   0.39786329892276     -3.08398082671649      0.38917815796528
  N   -3.13689200151741     -1.07334623105221      0.46223232631843
  N   -2.15270733639217     -2.77339278391559     -0.86850652252231
  C   -4.32004290288494     -1.63487979692256      0.28028392349447
  C   -3.34325344226238     -3.32040422813932     -1.02199656149760
  C   -4.49658229600272     -2.79649134209209     -0.45344519098380
  H   -3.38443670668051     -4.21537380188143     -1.63807704682829
  N   4.02510920794802     -1.28960040116286      0.81055581227727
  N   3.07418654477157     -2.93430097277609     -0.61091565101174
  C   4.23877087274576     -3.55302183730794     -0.64701444778999
  C   5.18393119990220     -1.92278058053461      0.74570073590665
  C   5.36040008909815     -3.09736740747138      0.03272522951090
  H   6.00872335356796     -1.47403472529377      1.29374499538719
  H   4.28589597172965     -4.45198647548549     -1.25682429340589
  N   -0.59901840404821      3.14827616481065      0.31027993932831
  N   1.77600466097334      3.07569519437128      0.42448515411504
  C   1.79445128122021      4.39139135015551      0.49088113560726
  C   -0.54393781764770      4.46284220751340      0.37808164286321
  C   0.64621275695883      5.17242542378957      0.47364551781963
  H   -1.49834334614392      4.98421376996780      0.35503178303618
  H   2.77648226337748      4.85379072271918      0.56153314166610
  H   -5.16602417795207     -1.13701806780147      0.74767040028002
  H   0.67649893988241      6.25055929771416      0.52926817911942
  H   -5.46592580919835     -3.25638961153722     -0.58294793580391
  H   6.30795428685549     -3.61590061763423     -0.00123088838722
