15
Coordinates from ORCA-job 831optt
  C   -1.91976537107587      1.81018397392081     -0.11148976819972
  C   -2.81287023269745      1.65272090357532      0.94229371247699
  C   -1.38663693953282      0.67418581255210     -0.79551143683534
  C   -1.82442444509377     -0.60035528045528     -0.34095155495042
  C   -2.71210182195500     -0.72477994106590      0.70483343252108
  C   -3.22079696059405      0.39947931776763      1.36607612974188
  O   -0.55421495472211      0.79830739562638     -1.77217613610087
  H   -3.02196804147146     -1.71614210600836      1.02077255509014
  H   -3.17804670954507      2.55471423097737      1.41982782732794
  C   -1.51669256569300      3.18412837562248     -0.53523683531036
  H   -3.91667845385504      0.28917495085878      2.18766500962874
  H   -1.43185885763062     -1.47138291666057     -0.85201658884882
  O   -1.93367368668416      4.19371376262442      0.00226163334086
  O   -0.66951372499693      3.21535887044966     -1.54563031174318
  H   -0.48261723445256      2.19974265021510     -1.80468766813888
