16
Coordinates from ORCA-job 833optt
  C   -1.67703304401717      1.04434615318536      0.00003310675361
  C   -1.75109352723215     -0.32428470875760      0.00001046525998
  C   -0.41878821815223      1.75825733435702      0.00020708577551
  C   0.73992049460002      0.90134180825579      0.00002715205322
  C   0.63513692085681     -0.46886840142265      0.00000353557529
  C   -0.60144096791688     -1.14009882347258      0.00003681573316
  H   -2.72969163210459     -0.79603777371915     -0.00003803348057
  C   -0.64274007362855     -2.58633297335137      0.00001749592146
  H   -2.57810093460230      1.64802035067782     -0.00003157074623
  O   -0.34971565273608      3.01080300973991     -0.00013582806475
  H   1.71044073705022      1.38485212338581     -0.00004867330947
  H   1.54242522359382     -1.06997429452660     -0.00005577602764
  C   -1.70299109158149     -3.40993961141868     -0.00000784562046
  H   0.34089649831421     -3.05580838355948      0.00002192440171
  H   -2.72164526572577     -3.04169941122188     -0.00002134507614
  H   -1.56969946671784     -4.48373639815171     -0.00001850914870
