24
Coordinates from ORCA-job 837optt
  C   2.17576945468881     -1.10105367113663      1.73045902015288
  C   3.01117812267457     -2.23735031010931      1.70030456180793
  C   2.26691263490813     -0.18971520530524      2.74209530374003
  C   3.92462958875287     -2.42536364145278      2.69583662493669
  C   4.06564994995423     -1.50392063748422      3.77665714010808
  C   3.20362060087802     -0.36783981080887      3.77762157042420
  Cl  1.01594106419381     -0.88668239998345      0.43624672360978
  H   1.63293865462692      0.68667757764945      2.78143332315526
  C   3.26368378211842      0.63447663864756      4.83651937935057
  C   5.00495869369521     -1.69695902815808      4.79441062329546
  C   5.10356697626340     -0.76618315976099      5.83321760073190
  C   4.25840403082831      0.38175948928034      5.87390377458959
  O   2.52223664094516      1.63086522742673      4.85382052179587
  C   4.37026816490412      1.30552940426608      6.93018154379349
  C   6.04576858040301     -0.91701926140558      6.89461039841152
  C   5.28717958582281      1.11122076040166      7.92194179964175
  C   6.14091224799934     -0.01174629651223      7.91069236994367
  H   3.70857787423952      2.16199951635879      6.92252605926670
  Cl  5.43247193775274      2.25334966412894      9.24135921786386
  H   6.70081487562669     -1.78117155654779      6.88328253286685
  H   6.86141339812708     -0.14101676401209      8.70809605786858
  H   2.91693414549861     -2.94616126001075      0.88764569612696
  H   4.56848014147329     -3.29770564292687      2.67528858476369
  H   5.65381885362485     -2.56445963254467      4.77819957175453
