28
Coordinates from ORCA-job 838optt
  C   2.31445281037302     -1.35975289772458      1.78186077577107
  C   3.23177637997795     -2.42095184064365      1.83345859020781
  C   2.30697961721132     -0.39582990051644      2.78039873330578
  C   4.13033090587640     -2.53197071532963      2.85560530665416
  C   4.17604513362821     -1.55658497446454      3.89622568567880
  C   3.25494397450619     -0.45862529791278      3.85260460630863
  N   1.35929995186886      0.60426755583370      2.75999398051432
  C   3.31651933533941      0.58305426220322      4.86424717651485
  C   5.11456884712124     -1.67107431886217      4.92858253410174
  C   5.18616065406848     -0.70989843158235      5.93704026029603
  C   4.30586635810888      0.40959345220636      5.91460657482004
  O   2.57403600904832      1.60163227083044      4.85846215498187
  C   4.39889640390113      1.37464821465256      6.93260969969400
  C   6.11908212593242     -0.79906166851595      7.01276683956777
  C   5.30886660683519      1.27049139659428      7.95143696891632
  C   6.18372230230530      0.15509406744827      7.99053658888526
  H   3.71533324776928      2.21291136626771      6.87831383759229
  H   5.37721460806205      2.02858220284554      8.72372770290976
  H   6.79257370205813     -1.65082220331304      7.04613747621386
  N   7.14308804121788      0.08611557335880      9.02742559667447
  H   3.21772692506770     -3.16784233168578      1.04627677660416
  H   4.83127389581028     -3.35769659194567      2.89116734068152
  H   5.79515400185717     -2.51499718210411      4.93508112597313
  H   1.58785231564099     -1.29608833895146      0.97993413394552
  H   0.96846958426778      0.82164469925872      1.85978493729713
  H   1.55305379647049      1.36350305812526      3.41117018733483
  H   7.47203088574356     -0.85525169522189      9.18750067416807
  H   6.80319157993215      0.48351026914922      9.89170373438651
