28
Coordinates from ORCA-job 841optt
  C   1.96537150525306     -0.57277618298244      1.69894853561293
  C   2.78896008883601     -1.70439366726821      1.53764172360018
  C   2.18841262828406      0.24830672915676      2.77530421269427
  C   3.77843295832395     -1.99196535531725      2.43887409462991
  C   4.01119520195594     -1.18468601563409      3.59531044973598
  C   3.19113528988883     -0.02598425710453      3.72040975541415
  H   1.18939312720689     -0.35007907010227      0.97736698713388
  H   1.60326034682511      1.14521124601996      2.93738928365941
  H   2.65158099550292     -2.35168357886430      0.67811012828015
  H   4.41532838552926     -2.84467843336867      2.24940988549693
  C   3.37517728344995      0.92359441172243      4.81254220285367
  C   5.02571939223958     -1.48737380556070      4.54412217929595
  C   5.19835723954220     -0.60692389627965      5.64826506762209
  C   4.41382149776596      0.57778693426169      5.77734841787226
  O   2.68951766663454      1.95289902801858      4.91667502951483
  C   5.81055617317331     -2.70293629260462      4.35827851221552
  C   4.59943437351888      1.44626809897418      6.86786184962152
  C   6.10119610229503     -0.87304146907843      6.72326091949448
  C   5.50809251743851      1.17939626217706      7.85850689543999
  C   6.24885704566509     -0.01703817083970      7.78033121779771
  H   3.97754493626400      2.33271626203979      6.88900112107317
  H   5.64192893754204      1.85736363484392      8.69218062112599
  H   6.66528880743627     -1.79317059592518      6.71499617386164
  H   6.94190409468344     -0.27341580306801      8.57453665718001
  C   7.11232807066821     -2.92252409732398      4.58278000480727
  H   5.25563244147425     -3.55209476040238      3.96293770573938
  H   7.78134219270738     -2.14343631627736      4.92481795320910
  H   7.54309069989512     -3.90014083921261      4.40436241501732
