24
Coordinates from ORCA-job 842optt
  C   1.10822682689505      0.09932039402418      2.07096609823980
  C   1.40601190387400     -0.19320193372897      0.73022939755787
  C   -0.14510753907624      0.51061775843590      2.45455948599475
  C   -1.20521238363704      0.66535800010057      1.51657995541092
  C   -0.88338963836483      0.37094207325778      0.15897432116492
  C   0.40602261395149     -0.05034409126134     -0.20223318079583
  H   2.39627956595645     -0.52130088649962      0.44050438359836
  H   0.59779528736928     -0.26186187300259     -1.24984486770882
  H   1.88044453627416     -0.00355919284428      2.82533077447274
  H   -0.34085434014929      0.71084486125440      3.49624275046857
  C   -2.51554212484476      1.12628339030910      1.85596577610725
  C   -1.90064039319618      0.52618537094996     -0.83411774740395
  C   -3.55641384988924      1.23568773796443      0.86262312763387
  C   -3.14274331820421      0.93170452860349     -0.51159470998962
  O   -4.74912167058138      1.51826041496174      1.07585738818632
  H   -1.64225469140532      0.30323994724435     -1.86604918436821
  H   -3.91872207188997      1.03987688157524     -1.26071245945721
  C   -2.82727430492905      1.44815307754338      3.24953296279511
  O   -2.37799148304482      0.91219077426182      4.24674353356927
  O   -3.69067383363365      2.48200676113760      3.37938363737342
  C   -4.10677225265150      2.75876113622730      4.69803739385511
  H   -3.26810180720092      3.07783477216813      5.32026221495942
  H   -4.55649764616795      1.87782520033776      5.15886078319954
  H   -4.84236738545399      3.55662489697963      4.61833816513627
