21
Coordinates from ORCA-job 847optt
  C   1.30707561738947      0.03785374576571      1.74727518380707
  C   1.23548233364698     -0.28411280445441      0.37353491656699
  C   0.21162173677439      0.52139373316122      2.40180393360428
  C   -1.03595220247191      0.71813238391514      1.73592501543103
  C   -1.10001977030928      0.37995958935202      0.34558967298673
  C   0.05460539679942     -0.11266780944781     -0.30276325503703
  H   2.10679536271483     -0.66731484564947     -0.14216076714550
  H   -0.00778320818950     -0.37066395212982     -1.35036982203405
  H   2.23926028372557     -0.09895246786034      2.28391408712056
  H   0.26941391588084      0.77265741958038      3.45516557102861
  C   -2.14650336025187      1.22749152728404      2.41744552585655
  C   -2.35110833097673      0.61023607739602     -0.30753459854770
  C   -3.39968976252851      1.45645008480564      1.79737917921799
  C   -3.42182134264944      1.11468763103514      0.38232387900592
  O   -4.42271086822895      1.91010610040199      2.36449151373905
  C   -2.52928366436022      0.30068266056949     -1.75844143770727
  H   -4.38689136966494      1.24409190034769     -0.10036113425956
  H   -2.05633902051226      1.46569008115251      3.47193168334115
  O   -2.04131103405991     -0.61750095419780     -2.35822115176216
  O   -3.33508449757027      1.16193214879507     -2.43272347736888
  H   -3.59459621515769      1.86889775017762     -1.82899451784380
