20
Coordinates from ORCA-job 848optt
  C   -1.78064943285539      1.04422419449801      0.32454258237629
  C   -1.92143412389803     -0.33494982325150      0.24953870765762
  C   -0.53060265539054      1.70677293779326      0.05942591563428
  C   0.54445628811838      0.82158337282260     -0.28973760828939
  C   0.38492961578170     -0.54442417669373     -0.34486494720248
  C   -0.84051264111428     -1.16094340384181     -0.07797457620867
  H   -0.93760554957845     -2.23435845496790     -0.13212334600135
  O   -2.87596454472207      1.78900549279473      0.71075505750989
  O   -0.40288124219388      2.96091262605441      0.13049905476770
  H   1.50450113123809      1.28114070329925     -0.49518260935133
  H   1.23436230012984     -1.16971456611295     -0.60308859357234
  C   -3.33486036320181      2.66174974777753     -0.29881504373976
  H   -4.15392492243386      3.24232544459581      0.12958440657113
  H   -3.71300505516846      2.08875076829435     -1.15513082722377
  H   -2.53210259362623      3.32797875652265     -0.62046749891642
  O   -3.18227618923271     -0.82496581559748      0.52082113414287
  C   -3.34773248971267     -2.21094442815822      0.47820666753890
  H   -3.13393290076635     -2.61709390370507     -0.51730068694822
  H   -4.39057154411440     -2.40682600973713      0.72672308777265
  H   -2.70410308725885     -2.72004346238682      1.20459912348234
