24
Coordinates from ORCA-job 851optt
  C   -2.99615962931298      1.08956425032956      3.01107781328378
  C   -1.65158314380483      1.39364215002343      2.66515129833247
  C   -3.88966923909851      0.70355530617214      2.05902160369808
  C   -3.52523408847174      0.58582292080639      0.67812760872624
  C   -2.16130021269059      0.89576445842793      0.34223287160788
  C   -1.26937976779665      1.28781217803749      1.33437341765975
  H   -0.24290111651137      1.51970807505342      1.07094181340691
  C   -4.42103708355331      0.19552990143957     -0.30645816439733
  C   -1.77718171704918      0.78368690805214     -1.02870297311601
  C   -4.05670532294561      0.07753552068203     -1.68292027599333
  C   -2.65885653271800      0.40081440193600     -1.98110569464905
  O   -4.83939967312672     -0.27115236482939     -2.59119287133932
  H   -0.74840588589544      1.01527065425656     -1.29002368524761
  H   -2.36243997727696      0.31644972158456     -3.02075708152019
  C   -0.66038307257426      1.81123240347822      3.64613297046992
  O   0.50043596588411      2.08890821181097      3.43063932782420
  O   -1.15871742994946      1.87443565603143      4.91482845886402
  C   -0.22640164665390      2.27276893063132      5.90016149563702
  H   0.16507054327123      3.26826562917346      5.68731354859791
  H   0.61334612778926      1.57824962883901      5.94566876370506
  H   -0.76634440866264      2.27397624761825      6.84455035857861
  H   -5.44732242794541     -0.03512791969940     -0.04205063127999
  H   -4.91269251456332      0.47511009016127      2.33680499409464
  H   -3.30236774634362      1.16950703998357      4.04570503305628
