16
Coordinates from ORCA-job 852optt
  C   -2.26948128913849      1.58736229395784      0.19362703069557
  C   -3.47864656683738      1.14118216899550      0.70670452205722
  C   -1.18705380138908      0.69745771241656     -0.06603893696928
  C   -1.42278842933440     -0.67220828433701      0.24964059365863
  C   -2.63568918918624     -1.10838027673081      0.76247689199038
  C   -3.67799379134148     -0.21002485306020      0.98586909598196
  O   -0.08041296768633      1.09951801727102     -0.57685179467125
  H   -4.26862767231574      1.86287188025964      0.89517445591588
  H   -4.62339081579869     -0.55426171110266      1.38698222325442
  H   -2.76013565363606     -2.16231826211100      0.99512579472023
  N   -2.02070461099067      2.95349983749947     -0.09460682849384
  N   -0.33334820085004     -1.55015217847542      0.01714468907933
  H   -2.76025953702211      3.37084704994236     -0.64359527526300
  H   -1.14108198466445      2.98706376416156     -0.60522165641190
  H   0.36043741907463     -1.01974015321128     -0.50523158060812
  H   -0.60804290888342     -2.37336700547563     -0.50191922493624
