24
Coordinates from ORCA-job 862optt
  C   2.11403052757183     -1.02215549599599      1.73241440457134
  C   2.96518562618460     -2.14126734037836      1.72809231162133
  C   2.24438631565554     -0.13548475734595      2.77146612186958
  C   3.89325386727006     -2.37416849720210      2.69737658723107
  C   4.04021275205778     -1.46011450044477      3.78460859213150
  C   3.18123671587132     -0.31694383084666      3.79877597488730
  H   1.39207815983839     -0.88306144162967      0.94073586940704
  H   1.62024821078750      0.74738773678887      2.83504883502025
  C   3.24655758572272      0.68116091554973      4.86013390022139
  C   4.97133465143234     -1.63584794348172      4.81226306501933
  C   5.08974582129604     -0.71652604851920      5.86750745175564
  C   4.24116302107524      0.43030949933416      5.89955165963615
  O   2.50667040804654      1.67707432402813      4.87850915184034
  C   4.35240292672949      1.35430773521660      6.95094639404780
  C   6.02589904389387     -0.86060976516094      6.93248004864730
  C   5.26310344792345      1.19000445853797      7.96418557506980
  C   6.10573093748583      0.06069320812819      7.94084249164313
  H   3.68164097952291      2.20406367425723      6.92092756145664
  H   5.33648421635344      1.91164218271871      8.76780778302891
  H   6.68254807140985     -1.71919565708516      6.93482732678333
  H   6.83155671347699     -0.08447744553209      8.73329826285229
  Cl  2.81214409361495     -3.28153010147736      0.40668599134242
  H   4.52032842074170     -3.25143553979977      2.64437929690021
  Cl  6.01814748603754     -3.04230536965987      4.78350534301581
