26
Coordinates from ORCA-job 863optt
  C   3.27553803000989     -0.64822643554746      2.83400554425288
  C   3.99986290602917     -1.84823214586618      2.61723834982545
  C   3.61066696155013      0.19119031033418      3.86541664466442
  C   4.70050438384570     -0.13901266310599      4.73869800965112
  C   5.41448090572991     -1.36192069846949      4.52021435973273
  C   5.03218109312605     -2.20151955206789      3.42771994381898
  H   2.45194568824597     -0.38781837746342      2.17861238265670
  H   3.71358141030497     -2.48950145248547      1.79152260834368
  N   2.92846268185432      1.39566935609993      4.05116235435996
  H   5.58025926039529     -3.12182322586430      3.26301278362930
  C   5.09411931277663      0.67712154751707      5.80466735121938
  C   6.12613761220848      0.33716291161788      6.65767563454090
  C   6.84421904727403     -0.89032688882226      6.45420789932759
  C   6.45850869463572     -1.69847676884294      5.37727786588513
  H   4.61988149719978      1.62880327504272      6.01562132571500
  H   6.99321566353737     -2.62783465580152      5.20349897354573
  C   6.45902725950722      1.26377287104315      7.77095890896153
  C   7.89880184711034     -1.22929348838563      7.33670940679811
  C   7.52662860991676      0.83295897399530      8.60012737505411
  C   8.20135790491677     -0.36621359295367      8.37049184021172
  O   5.81680869271222      2.32642439939195      7.92628909133175
  H   7.80531491431966      1.47281693328850      9.42834180541200
  H   8.44666593710261     -2.15200751752098      7.19205580184758
  H   9.01059757787717     -0.63363353479179      9.04537186254568
  H   1.99825095035612      1.39914038920137      3.66349842551352
  H   2.94137115745752      1.74513003045696      4.99665345115483
