39
Coordinates from ORCA-job 867optt
  C   -0.67611182973572      0.31303154913225      0.10414417901313
  C   -0.75607093806151     -1.06438535372274      0.09192380452165
  C   0.53668352990593      1.01350510384813      0.09348180592056
  C   1.70655569631919      0.24389946264720      0.07352425931482
  C   1.70657726841247     -1.13596996241855      0.06619050984003
  C   0.45253554141472     -1.88163398557080      0.07255567515838
  H   -1.60085610928328      0.87802109762842      0.06382455941112
  C   -2.08242219344461     -1.70611079072040      0.08950388380187
  C   0.57932077151607      2.47390490344335      0.10331382329484
  H   2.66238808984783      0.75368192038961      0.12287884919780
  C   2.99351757270037     -1.85340272562716      0.06257727754281
  O   0.41611757667190     -3.12734708449342      0.06261561624675
  C   -3.17925483991522     -1.11372905079226      0.72654257493549
  C   -2.34041839607835     -2.91967700873178     -0.55742366886405
  C   -4.42527803263504     -1.71400925061357      0.67058005403346
  C   -3.62705588090212     -3.43378637384006     -0.55658627289700
  N   -4.67282474752038     -2.85972119847659      0.03888462238837
  H   -1.53678549804642     -3.45059094095276     -1.04302302894813
  H   -3.82852236666416     -4.37078987412377     -1.06676222250269
  C   3.17832454517848     -3.08989383019858      0.69091628171063
  C   4.12598318972668     -1.31492244260208     -0.55993382099354
  C   5.33561603900964     -1.98566711771504     -0.50694591917867
  C   4.43355462685949     -3.67659899983449      0.68791790394761
  N   5.51396627936183     -3.15353515325762      0.10736560729095
  H   4.57812205395362     -4.63160420453043      1.18375068063666
  H   2.34290139836123     -3.58159531341727      1.16399102831915
  H   4.06007691753964     -0.38342110436864     -1.10720856865324
  H   6.20942803593451     -1.56238653256309     -0.99354589367839
  C   -0.47460670173452      3.25607461090917      0.59843425151222
  C   1.67752335775698      3.19953797807825     -0.38158311057708
  C   1.67024468982844      4.58215912815260     -0.34563133740726
  C   -0.38568418231981      4.63624196633573      0.58209893373468
  N   0.66332567228496      5.31942242061573      0.12343900247120
  H   -1.20673311007228      5.23065395735032      0.97164336469384
  H   -1.35380370022574      2.78941582190145      1.02173333183980
  H   2.52775297420900      2.68790364991930     -0.81198204019889
  H   2.52500948139074      5.13257349351699     -0.72719264736056
  H   -3.05795972391044     -0.19619627799910      1.28776519908940
  H   -5.27122705763412     -1.24987248729824      1.16904145139224
