28
Coordinates from ORCA-job 876optt
  C   2.42038246577004     -1.27622724519556      1.74372998917340
  C   3.49822391524085     -2.16925348807330      1.57754442863111
  C   2.39947526138830     -0.47569660105822      2.85722091098791
  C   4.50478541289834     -2.24202175629525      2.50163364874518
  C   4.51381180143316     -1.42581669109891      3.67242414144666
  C   3.41602890368377     -0.52954464799569      3.82651217423114
  C   3.30218286549431      0.35178066071439      4.98530319446133
  C   5.53842987618437     -1.49354817558167      4.65101390760420
  C   5.44538038819110     -0.68408240840930      5.81215748997383
  C   4.35775760276502      0.22106936615918      5.98559377656730
  O   2.36361724035779      1.15172369709939      5.11675977975950
  C   4.26895605345663      1.01477038857377      7.14244859493761
  C   6.40479029197891     -0.72917561238064      6.86799996860587
  C   5.20837752919225      0.94569836266702      8.13922219181740
  C   6.28843380661550      0.05311689367658      7.98447903327358
  H   3.41783256374626      1.68147790752452      7.20750465070653
  H   5.12570681267437      1.56005463504630      9.02704243610241
  H   7.24608445752044     -1.40158213412853      6.76779664492091
  H   7.04263382376847     -0.01731128154265      8.76088140059220
  H   3.53440043535652     -2.81085005741284      0.70366762932280
  H   5.32620965519720     -2.92920077649280      2.34932650677559
  S   6.89120388086515     -2.59856136030342      4.44494226921783
  H   1.59631628393907      0.22853735025353      3.03643239944853
  H   1.62865787899033     -1.22719910539880      1.00665879529050
  C   6.23605218135063     -4.10519543949650      5.21993596680583
  H   6.99760299274312     -4.88315096159246      5.15015746329881
  H   5.33471773170187     -4.42924176892952      4.70012929454929
  H   6.00375788749605     -3.91459975032860      6.26741131275251
