20
Coordinates from ORCA-job 877optt
  C   1.34973048259396      0.02993674896254      1.75972582612021
  C   1.26116987440283     -0.38718038592863      0.41059963581392
  C   0.28365500774747      0.61767613968680      2.38351725974889
  C   -0.95543728397498      0.82857847985392      1.70457753237233
  C   -1.03082107370080      0.42282985867034      0.32996365378192
  C   0.08903322056727     -0.18093008140194     -0.27428424881197
  H   2.11026131942061     -0.85290661312900     -0.07401927198126
  H   0.00499427563564     -0.48410096314382     -1.31400798201728
  H   2.27885880603866     -0.10838075341823      2.30180369449395
  H   0.37805310234079      0.95742931801658      3.40798878793377
  C   -2.06647816269888      1.40162139905326      2.32852384800423
  C   -2.24215741592197      0.64919789530933     -0.36494310827498
  C   -3.29193347965307      1.63546268542068      1.63954530322989
  C   -3.31124425485110      1.23102375506583      0.25513579440128
  O   -4.29219251675719      2.15352273664004      2.21953551798673
  H   -2.30752583232679      0.34595039876765     -1.40602183634033
  H   -4.24139446227119      1.39533061957844     -0.27844604651746
  N   -2.02754514684052      1.82145691288078      3.68161941565823
  H   -2.97945141864449      2.09237765621730      3.91910433673353
  H   -1.71650504110621      1.08551419289811      4.30458188766432
