19
Coordinates from ORCA-job 881optt
  C   1.27380565949029     -0.02772883140176      1.99450242493206
  C   1.19672351340691     -0.29041728947831      0.60966477933270
  C   0.18474756088898      0.48953973575257      2.64615044233931
  C   -1.01270020636012      0.76459964636069      1.95839951179566
  C   -1.10976349304600      0.50696737435258      0.56419811925768
  C   0.04099329787176     -0.02959242593826     -0.07602621702093
  H   2.05250625228296     -0.70088709262914      0.07998169634687
  O   -0.06479751611787     -0.27581546199858     -1.42837821191905
  H   2.19345106616706     -0.23836745789505      2.52698483345595
  H   0.19889982024385      0.70615805506593      3.70675231153775
  C   -2.15062991781194      1.31937815332661      2.71296003042615
  C   -2.30353579992282      0.77662384634153     -0.13969065963640
  C   -3.31702038905216      1.56363361493179      1.93452111768117
  C   -3.37063091235153      1.29710614040585      0.57044510785043
  H   -4.17789441858651      1.97213704448534      2.45088174099397
  H   -2.36646022248747      0.57704784016278     -1.19909671336712
  H   -4.29485416723781      1.50859885190828      0.03875899186431
  O   -2.06502804077248      1.54653737021936      3.94386502431414
  H   0.77421791339489     -0.63463911397219     -1.72930433018468
