21
Coordinates from ORCA-job 892optt
  C   1.24493164524265     -0.11848674766148      1.95950013619495
  C   1.21946850348057     -0.39553521786608      0.57427003022388
  C   0.16232866758796      0.43582911362285      2.57982031884769
  C   -1.02710237554528      0.75458063757217      1.85731180004794
  C   -1.03908881900325      0.46730215390238      0.45372187969494
  C   0.09584057339665     -0.10813986152396     -0.16806832166875
  H   2.08586242164945     -0.83533224270471      0.09328346484493
  C   0.07803251052225     -0.40696010724716     -1.64435700589409
  H   2.13625197711260     -0.34993354733666      2.53267054301720
  H   0.18782979775368      0.64654609746508      3.64364646436383
  C   -2.14046468723123      1.32440873736032      2.48185607086697
  C   -2.23110721762100      0.78928643984606     -0.25493210045526
  C   -3.33694905461985      1.65454550617570      1.79106941727571
  C   -3.30680385706685      1.34380160009980      0.36588652084740
  O   -4.35349064764198      2.16900603495580      2.32148303391610
  H   -2.28200325652202      0.58609001504412     -1.31969602080925
  H   -4.20609495916197      1.58151740656010     -0.19304271579404
  H   -2.10329157398759      1.53129989105829      3.54653164053270
  H   -0.71980404350965     -1.10921736656468     -1.89900277843557
  H   1.02760907425043     -0.84137869702174     -1.95802690720946
  H   -0.09425467908552      0.49839015426383     -2.23184547040788
