16
Coordinates from ORCA-job 897optt
  C   -1.41510571151385      1.32875478738236      0.00011005269038
  C   -1.68767865714307     -0.02329797654680      0.00007929772801
  C   -0.06031313813214      1.85556976210257      0.00024721689463
  C   0.94406618015007      0.83937875296628      0.00000686582513
  C   0.65587792220654     -0.51867206252305     -0.00002780909422
  C   -0.65331129906393     -0.97506612890517      0.00005968799516
  H   -2.71332683834414     -0.37269056049265      0.00005751028217
  H   -0.88483726650831     -2.03247586578886      0.00002824407017
  O   -2.39237710769109      2.30052870675667      0.00007774298990
  O   0.18125284660135      3.08982765174911     -0.00011281844729
  H   1.97198403350738      1.18555565449100     -0.00012010800321
  H   1.47347503216572     -1.23416982897686     -0.00013762317651
  C   -3.71537111688135      1.87104540131394     -0.00004267182021
  H   -4.33761108600846      2.76625027387485     -0.00004142026626
  H   -3.95268226856399      1.27086346346808      0.88851267189491
  H   -3.95255152478071      1.27095796912854     -0.88869683956275
