26
Coordinates from ORCA-job 898optt
  C   1.18658761722493     -0.54747758345160      1.76300439384180
  C   1.11609499372094     -0.91505750444566      0.40137102373355
  C   0.21263827029980      0.22342555870411      2.33911665868595
  C   -0.91093380429840      0.68808814822596      1.59252700578984
  C   -0.97269715738234      0.31039718016389      0.21368406508032
  C   0.04634378136123     -0.48368534716030     -0.34439773407144
  H   1.89230742321965     -1.52522272383268     -0.04352240879471
  H   -0.03222341280329     -0.75206570621680     -1.39399938855648
  H   2.02665130552068     -0.88201512731511      2.36234431830001
  H   0.26882805639707      0.50357557705922      3.38251305956084
  C   -1.92417041231630      1.48235607404941      2.16420622122938
  C   -2.08211357480013      0.76295329439668     -0.54984117355262
  C   -3.04081681137982      1.94054935928972      1.40380217783040
  C   -3.05399604441836      1.52898676109204      0.00749489741356
  O   -3.97021029398382      2.65279626456262      1.87346520472587
  H   -2.13624850467374      0.48040235607879     -1.59796716263631
  H   -3.90065822793467      1.87406541228475     -0.57665998957108
  N   -1.81345043502094      1.83090980644680      3.55534777341263
  C   -2.88200277809200      1.26764123256515      4.36587947975940
  C   -1.67309340641412      3.26258759865671      3.77148592421624
  H   -0.81730465713506      3.62460004054840      3.19893478715346
  H   -1.47776932350403      3.44765196241213      4.83309471115619
  H   -2.56651554877207      3.82113134018667      3.46586870629191
  H   -2.89891553454225      0.18525568721464      4.22637143617275
  H   -3.86612818402262      1.67487702336735      4.10232138002125
  H   -2.67819333625028      1.47348331511705      5.42202463280719
