28
Coordinates from ORCA-job 8optt
  C   -1.02552269877939     -0.95289540594783     -0.62271236726850
  C   -0.16346545558192     -1.99822305593100     -0.42163106973062
  C   -0.62128159626473      0.38453965709189     -0.44479810969891
  C   0.67318831199007      0.67317939516646     -0.05650685362113
  C   1.61326925052392     -0.37958088861366      0.16512374472033
  C   1.20677548008655     -1.78914998809605     -0.01811595861900
  C   2.90625512586421     -0.09529829249355      0.55756568896600
  C   3.33008264475516      1.23881696482916      0.75146192425968
  C   2.45187203880690      2.28027989877671      0.54433063326472
  C   1.08577336960252      2.07731841237974      0.13465524157788
  O   0.30555349612540      3.02630909192878     -0.05038760781342
  H   -2.04728703585553     -1.15635222825229     -0.92648856210523
  H   -0.47669385727085     -3.02617397173391     -0.55867107516249
  O   1.99489918951008     -2.73163622994301      0.16059299243271
  H   -1.30610333004006      1.20700785029237     -0.60336319796937
  H   3.57350504046620     -0.92689949746756      0.74301737854780
  C   4.72466326973923      1.50634711204261      1.17670170641017
  C   5.02963064194118      2.57135928706140      2.02884358576845
  C   5.77889224182588      0.70157686843285      0.73535516388697
  C   7.08554304824715      0.95390470468590      1.12608574382009
  C   6.33558251536787      2.82551377779893      2.42057080513819
  C   7.37282273212383      2.01854280123051      1.97071495440418
  H   4.22383526767255      3.19123215376160      2.40106704748420
  H   6.54341816335238      3.65319640542860      3.08784254011134
  H   7.88451067747026      0.31822640908293      0.76423535488735
  H   8.39255395987179      2.21524328560344      2.27709345655639
  H   5.56607985324860     -0.12128115882629      0.06484594430741
  H   2.76859765520070      3.31073664171121      0.65354089544478
