19
Coordinates from ORCA-job 901optt
  C   1.28260239422810     -0.04707381610837      1.91706917870742
  C   1.18322051358840     -0.30030694728591      0.53924023605019
  C   0.20403247488931      0.47427926510853      2.60851457786731
  C   -1.02517492021618      0.76941852029201      1.96491173257570
  C   -1.10780004645552      0.50401127876434      0.55905019811132
  C   0.02113439955871     -0.03290366987591     -0.12294173908936
  H   2.03594797872146     -0.70933844315318      0.00866626151811
  H   -0.06553891401347     -0.22501295375182     -1.18648824239369
  H   2.20423265199057     -0.25804729729517      2.45085507986979
  O   0.33528375193753      0.70789197841505      3.94596055268053
  C   -2.18695074881284      1.32847320324726      2.69460222551493
  C   -2.29529483105079      0.77067762562252     -0.14989474397249
  C   -3.34516526628366      1.56340630455139      1.88431849530014
  C   -3.38337316021938      1.29294858216114      0.52991973519583
  H   -4.20789882880224      1.97254790713799      2.39633198022758
  H   -2.33798196625186      0.56337990770912     -1.21192851477469
  H   -4.29865827806400      1.49789951187949     -0.01982330728075
  O   -2.17282623677505      1.57943626795858      3.91599254293853
  H   1.22824903203091      0.44753277462297      4.19161375095359
