27
Coordinates from ORCA-job 902optt
  C   1.30676806973875      0.20644167543628      1.91752135417120
  C   1.38920306051537      0.14871983805694      0.51506983447273
  C   0.08579710154695      0.44809213930378      2.50173120843340
  C   -1.07731046744074      0.63542462484794      1.73932820786691
  C   -1.00970063860345      0.57672485755657      0.31582171656309
  C   0.26900312387040      0.32657124009272     -0.25736960843917
  H   2.34449849957405     -0.03785459906532      0.03621177697711
  H   0.37035074389201      0.27456102504367     -1.33431792072510
  H   2.19347363005577      0.06312903776866      2.52353206693955
  H   -0.03275027103069      0.50477994107822      3.57730088914741
  C   -2.33969450424092      0.89277216186780      2.45775314979297
  C   -2.18440243492132      0.77350454802792     -0.46703882021199
  C   -3.46055489616773      1.08448776195783      1.60958930353546
  C   -3.36015391054166      1.02311020594579      0.22269855790431
  H   -4.41532139058959      1.28779843120316      2.08008868075987
  C   -2.13233071125819      0.66725222975155     -1.97748486331891
  H   -4.27170999838893      1.18622827201237     -0.34481164936935
  O   -2.37998747305148      0.93551989259576      3.71065617796553
  C   -2.03290771571063     -0.79426277706849     -2.43760598798103
  H   -1.90042518885526     -0.86663868409693     -3.52224837848525
  H   -2.95075977953719     -1.32221430657588     -2.16683593812364
  H   -1.20274182377320     -1.30593354846306     -1.95013122110286
  C   -3.31073362172305      1.33339016148403     -2.68509799622875
  H   -1.23016798227996      1.18457792662669     -2.32513805111003
  H   -3.15827311696991      1.32051806728057     -3.76721325063360
  H   -3.43356019418553      2.36829881124331     -2.36211571724388
  H   -4.24374810992388      0.80356106608810     -2.48006352155598
