22
Coordinates from ORCA-job 906optt
  C   1.27179401154796     -0.07416151501994      1.74323319083931
  C   1.18629564815638     -0.33186689844552      0.35781724215828
  C   0.20560948537490      0.44138908421936      2.42781248817048
  C   -1.03365059601138      0.74226547569559      1.78486675345299
  C   -1.10086756910594      0.47302379122676      0.38024469794580
  C   0.00886040691734     -0.05632410773944     -0.29849831173735
  H   2.03421666536038     -0.73978720697461     -0.17769827482859
  H   -0.08138107401509     -0.24545333868611     -1.36086756649564
  H   2.19474101228034     -0.28787518616482      2.27185069919166
  H   0.28478164850963      0.63472816531133      3.49230387915867
  C   -2.12611897566033      1.26993705237907      2.47657659615522
  C   -2.33701829624154      0.77008778869470     -0.27503824204301
  C   -3.35669242040279      1.56927623998576      1.83780477834674
  C   -3.39671391658583      1.28423915262710      0.40302252730572
  O   -4.36862171656433      2.04358020185444      2.41017453695539
  O   -2.35132576120427      0.49322412424039     -1.62359670836546
  H   -4.33517568133428      1.51234340836057     -0.08410295043102
  H   -2.04682140472116      1.46350238782388      3.54040294079360
  C   -3.53482758966008      0.77150908451193     -2.31740493074202
  H   -4.37559746902957      0.19011114015886     -1.92518565692162
  H   -3.35763947414190      0.49672112335752     -3.35637676489378
  H   -3.79236693346843      1.83410003258316     -2.26034092401538
