24
Coordinates from ORCA-job 90optt
  C   -1.58503935243481      0.70282779123469      0.00000266766453
  C   -1.75007228557644     -0.66117898477153      0.00000637858580
  C   -0.31734380597138      1.31022564354477     -0.00007191448514
  C   0.82878452482146      0.53476459153558     -0.00014803046895
  C   0.72527619909324     -0.88939766192585     -0.00012095771899
  C   -0.59554100193608     -1.53870015677908     -0.00007474730428
  C   1.87140510586189     -1.66485829592709     -0.00011805843412
  C   3.13910024462776     -1.05745925074491     -0.00005060096010
  C   3.30413379614702      0.30654732190739     -0.00007824788674
  C   2.14960195582900      1.18406873253234     -0.00033125835910
  H   4.02311296699886     -1.68960544556041      0.00005070070387
  C   4.65089239925852      0.95975397610102      0.00008790537174
  O   2.28434011659043      2.42172669711216      0.00018418064251
  H   1.76494678708280     -2.74167683408706     -0.00007879329411
  H   -2.46905221608043      1.33497377173493      0.00005019272460
  H   -0.21088537484326      2.38704415152832     -0.00010484369658
  C   -3.09682957448737     -1.31438694836235      0.00008914665033
  O   -0.73027962202512     -2.77635788220388     -0.00000780706375
  H   5.44899697607983      0.21568693303849      0.00025503235362
  H   4.76526933740522      1.60888294937485      0.87186192749077
  H   4.76553098214639      1.60877484147542     -0.87173181480812
  H   -3.89493545304777     -0.57032149803619      0.00014523318023
  H   -3.21128064311246     -1.96346808491465      0.87188868594645
  H   -3.21139206242735     -1.96345635780697     -0.87170497683449
