22
Coordinates from ORCA-job 910optt
  C   -1.87232440484847      2.28409460171568     -1.14394939896113
  C   -0.99638392431453      3.42078240397355     -0.70078743376793
  C   -2.47388859101295      1.41059623674029     -0.03503428073494
  C   -2.35568122012392      1.89980163834171      1.33643727417916
  C   -1.62522084783590      2.98708693435189      1.60938782362361
  C   -0.90951952083123      3.80479028932692      0.60647545443196
  O   -3.03933548929351      0.37318475803340     -0.31554392735054
  H   -1.50721489184564      3.33171312536551      2.63082047688986
  N   -1.25954949429181      1.45316429234848     -2.18027635031544
  H   -2.83329095162547      1.31032607939637      2.10930003170285
  C   -0.08478233166801      0.74883233552113     -2.01425982773684
  O   0.19472861713697     -0.20830032072995     -2.69359877018290
  O   0.75352962911102      1.20435416351056     -1.07707602920751
  H   0.44120051910657      2.06024346015579     -0.71145575712077
  H   -2.76145927985303      2.71645359379706     -1.62689521928069
  H   -1.91276994753001      0.90914492324896     -2.72293853802587
  N   -0.26155480443197      4.84972346047813      1.18803831099361
  C   0.44992926413829      5.69928055447478      0.42129340055335
  O   0.66910143158281      5.71188694262163     -0.77749081815264
  O   1.00577619240532      6.70697858514054      1.18077756443342
  H   0.72247811749909      6.51343406949713      2.08182320699910
  H   -0.53430807147354      4.01337787269030     -1.47577719296970
