26
Coordinates from ORCA-job 913optt
  C   1.28973669688083      0.30749276036616      2.07344107795533
  C   1.26021886601865     -0.30504706542674      0.80048742417578
  C   0.18632774233925      0.93812048325832      2.59647255738827
  C   -1.03806097942974      1.01987827210087      1.83796121938195
  C   -1.05757303911086      0.35128846313937      0.57333642614542
  C   0.09356113361984     -0.29207892377777      0.08180805148616
  H   2.14891185195159     -0.78826997025277      0.41436363539206
  H   0.04089935621809     -0.76947625044262     -0.89197083174269
  H   2.20625228980432      0.26423252550651      2.64830912061779
  C   -2.16450593249011      1.72329361864429      2.27751257560183
  C   -2.26509427641561      0.40209589849764     -0.17759589941938
  C   -3.37866550990492      1.79034363302822      1.53733551017318
  C   -3.36089945225787      1.06530180500179      0.27096015792777
  O   -4.40180541065336      2.41765385186021      1.90729724459929
  H   -2.28730149345552     -0.10639352240078     -1.13829729351007
  H   -4.27387463739220      1.09853447655913     -0.31416776120568
  H   -2.12573047712979      2.27696493156074      3.20636699055925
  H   1.37798524411215      2.49038469330459      5.30871395942205
  C   1.50739965984945      1.86584209971821      4.42161308799669
  H   2.08494264583047      2.42027737039942      3.68199706966069
  H   2.09037964005790      0.97801999640542      4.72423931973703
  H   -0.74816727770612      1.45674626026745      5.74857201004738
  N   0.20859936481671      1.54074176884901      3.88938465870173
  C   -0.58491902688610      0.82239600132605      4.87364089336348
  H   -0.07430620525622     -0.09899918050065      5.20081358953099
  H   -1.55024077341083      0.55404600300788      4.45181520601357
