12
Coordinates from ORCA-job 915optt
  C   -1.59030412744115      1.36094312132952     -0.00003802730713
  C   -1.83694932785936      0.00189636825899     -0.00000000038703
  C   -0.25820240864404      1.90661276358650     -0.00027813149553
  C   0.77983806791418      0.90916059626345     -0.00003754372298
  C   0.50921567915734     -0.44525223521169     -0.00000008644840
  C   -0.79965384505967     -0.93416546125277     -0.00004322621420
  H   -2.86691228889752     -0.34654647609128      0.00007364249907
  H   -1.00242471607942     -1.99772454537088     -0.00001105929909
  H   -2.41062712146700      2.07115794888899      0.00005355545806
  O   -0.02192048807901      3.14616393239706      0.00015390867258
  H   1.80389138854985      1.26784871670520      0.00005373872796
  H   1.33879918790580     -1.14812472950313      0.00007322951671
