28
Coordinates from ORCA-job 918optt
  C   2.32082682241068     -1.28179616582733      1.82481973516951
  C   3.20378886722164     -2.38552004479927      1.87562419705038
  C   2.39274180510290     -0.32757547501489      2.79940447568863
  C   4.10043532448146     -2.53305040701397      2.89981950502164
  C   4.17955346431071     -1.56445490663773      3.95714946601783
  C   3.31799784006780     -0.44012621056994      3.86079008179247
  H   1.74614629402273      0.54243548566753      2.79646582407070
  C   3.34569423161580      0.61986430027989      4.86290009244365
  C   5.07549897520667     -1.70592405913868      5.03117438322265
  C   5.13597896960549     -0.71596949640091      6.01592399727841
  C   4.29978401322542      0.43903281068219      5.94699370944758
  O   2.59694344703609      1.61459377821930      4.79156279321189
  C   4.38604704735730      1.42228336200516      6.95219417881855
  C   6.02236779287299     -0.81429194768665      7.13208005165818
  C   5.25233360955594      1.30203439430576      8.00766061933045
  C   6.08060034841957      0.15573910791415      8.09029558578297
  H   3.73043139302843      2.27898765342440      6.85132911080066
  H   5.30616126271027      2.06740854781845      8.77204041469085
  H   6.66058050635455     -1.68939576049387      7.20213508786118
  H   6.76718975380344      0.04833657588492      8.92321774814890
  H   3.18098227721972     -3.11678961165065      1.07206577917489
  N   4.94979659570209     -3.65592739777987      2.94996221197152
  H   5.68091758956378     -2.59491822573820      5.15098656520484
  N   1.43556918118691     -1.17886244251184      0.71329415861022
  H   0.94695789757473     -2.04901463544321      0.54443238601055
  H   0.75098322465727     -0.45076889555625      0.86785284749303
  H   5.06260674631172     -4.09163680586834      2.04618231611032
  H   5.85314471937376     -3.43208352807014      3.34478267791735
