26
Coordinates from ORCA-job 91optt
  C   2.45410324297883      0.45911777090367      1.74000891721870
  C   2.64510069847597     -0.92256129677559      1.72382293039821
  C   1.50503797848817      1.11473380772624      0.79874225968601
  C   0.61024144085012      0.22959276686459      0.07526763356423
  C   0.80975419642123     -1.17295646293916      0.13286823687199
  C   1.84593883899807     -1.72408348381626      0.92178791771548
  C   -0.47611188061674      0.76717637970221     -0.74323613560460
  C   -1.27317474508131     -0.22647160515093     -1.46434729104721
  C   -1.03834995018109     -1.57304565869592     -1.39283848669030
  C   -0.00007477597887     -2.06373796788344     -0.59871497391598
  O   1.52886392413645      2.34160230471574      0.68219970283783
  O   -0.76936025757863      1.96241272149043     -0.85559904939281
  H   -2.07442958376682      0.17729003189462     -2.07180364338948
  H   -1.65972438600397     -2.26449742377531     -1.95242880034920
  S   3.42608429886395      1.45610427353755      2.79525166764557
  S   3.86153094452633     -1.74725347583325      2.72729746844046
  H   2.00369151789302     -2.79498730913394      0.91672172760381
  H   0.19562103185205     -3.12695574058262     -0.53166282908782
  C   2.33064570588231      2.81391434511036      3.26923077792238
  H   2.29090896007533      3.57552674377316      2.49981597982515
  H   2.74252154681665      3.19997709370445      4.20185667629856
  H   1.32820105566876      2.43041288286073      3.44440716061650
  C   5.39338189456956     -1.15923054762808      1.96555230604531
  H   6.20673459803030     -1.71137602474006      2.43547187314659
  H   5.53888923488954     -0.09388464241917      2.13367552019476
  H   5.38322446979071     -1.36923948290999      0.89758245344579
