24
Coordinates from ORCA-job 922optt
  C   2.21358269067887     -1.15403390589756      1.70877809216524
  C   3.06679044405790     -2.27583433345555      1.74102476149009
  C   2.26774085907194     -0.20517706314230      2.70573475009590
  C   3.95424003812366     -2.42206994100818      2.75596419775681
  C   4.05417534824628     -1.46847327518902      3.81326120423567
  C   3.17642158422722     -0.32778933740246      3.79529293879112
  Cl  1.11696459454229     -1.03895697175315      0.36270125926570
  Cl  1.19105804340104      1.14310040782905      2.56176297927816
  C   3.24835095834134      0.65061540808210      4.89128297845272
  C   4.99149586441379     -1.66794290113547      4.82419966790956
  C   5.11353261154976     -0.74807303238726      5.87178232420201
  C   4.26870958070229      0.39055638039198      5.91509059787569
  O   2.51497443472061      1.64230900389532      4.98616525784847
  C   4.39680149879291      1.30973887758183      6.97117228204904
  C   6.06605942020338     -0.90700742058909      6.91912720205400
  C   5.32442102227941      1.13566682761962      7.96830303819003
  C   6.16842651771875      0.00420287043881      7.93290035976286
  H   3.72895299013483      2.16190492152438      6.96162768794675
  H   5.41135625811710      1.85401288526632      8.77381430871057
  H   6.71631549270111     -1.77503216460838      6.89512735523964
  H   6.90404829185328     -0.14248572198541      8.71614437732975
  H   2.99718834976725     -3.00386295494208      0.94354507585540
  H   4.61437111950244     -3.28121529312962      2.77947820280749
  H   5.63014198685244     -2.54261326600385      4.79208910068718
