24
Coordinates from ORCA-job 92optt
  C   -2.80795641820221     -0.74679712675175     -0.07528617079475
  C   -2.31817966965358     -0.53350570662366     -1.33298789628556
  C   -1.95036603244091     -1.14572318311475      1.04500320863029
  C   -0.53333517223701     -1.27378309778180      0.69146072818926
  C   -0.06251633625814     -0.99355564519144     -0.55975928680115
  C   -0.91762332558246     -0.62205413825115     -1.65661564800895
  C   0.47504550953915     -1.71191230158749      1.68851377600385
  O   -2.38728557607636     -1.35244591058866      2.18161513397526
  O   -0.47884696542006     -0.39332051275752     -2.81021999576338
  C   -4.25080261393448     -0.51965435046539      0.17579236599231
  H   0.99975195507745     -1.07086521182989     -0.76078751303812
  O   -4.75330848525033     -0.03716521057778      1.15378217185405
  O   -5.01184879140968     -0.89377968250396     -0.89178231704381
  C   -6.39489933051861     -0.62842336914417     -0.75053577874112
  H   -6.57311673178282      0.43779394743016     -0.60406973015602
  H   -6.80651334459271     -1.16454331346898      0.10523396966453
  H   -6.86326942213802     -0.96752322985528     -1.67164488158117
  O   1.62526756880551     -1.33840436840471      1.71493684285922
  O   0.01594712920336     -2.63293319875452      2.54961213664304
  C   0.95085156600061     -3.07013399195255      3.51787844668355
  H   1.80995306483188     -3.54649131132669      3.04323125815340
  H   0.41923196023577     -3.78114614254865      4.14521464282590
  H   1.30855361365800     -2.23073507399354      4.11494561223038
  H   -2.98688415185425     -0.25872786995579     -2.13960107549107
