42
Coordinates from ORCA-job 931optt
  C   2.06265157920509     -0.93293939583624      1.82915552981365
  C   2.88844173899788     -2.08351971966327      1.72148413421925
  C   2.27599287209802     -0.03538341105962      2.84302794767056
  C   3.88668474559540     -2.27557004901039      2.63575053194487
  C   4.13981881999503     -1.36273742566443      3.70552248598487
  C   3.29660574967449     -0.21546991162519      3.79337595624964
  H   1.26734522648390     -0.76697207603927      1.11104600247590
  H   1.66148154116629      0.85082056847566      2.94923123195618
  C   3.46993935195019      0.77678250062496      4.84746677004400
  C   5.16610505892601     -1.57535136975744      4.63070093936306
  C   5.37735656715458     -0.65303305102162      5.66292901295901
  C   4.55579051865545      0.50751330546136      5.78675430115357
  O   2.74523010565576      1.78384905251802      4.94207217865747
  C   4.79414185966656      1.41204335795498      6.83317914103230
  C   6.41062738068533     -0.82614146005314      6.63020094448015
  C   5.79977538524008      1.21173139173451      7.74632408463389
  C   6.62874839420511      0.06784966025789      7.64471626319185
  H   4.14621492565587      2.27882048974524      6.88762972984578
  H   5.96865430305760      1.92248417702158      8.54794762845464
  H   7.03766921990652     -1.70959943963553      6.54121319482136
  C   7.73299955425749     -0.15266991168321      8.66072358336678
  H   4.52113798105740     -3.15446364411368      2.55709528577597
  H   5.79758296993351     -2.45283639488696      4.54941113168314
  C   2.66046116208978     -3.07891821035549      0.60400257152281
  C   2.86928471611651     -2.43804607570281     -0.76980382652867
  H   2.14263809381132     -1.63966284272212     -0.93406475753488
  H   2.74805287108877     -3.17551524154312     -1.56751032954704
  H   3.86580104279350     -2.00144304145511     -0.84560424987790
  C   1.27124634527752     -3.71443776313059      0.69038611343117
  H   3.40314685396367     -3.87376318234972      0.72186201177519
  H   1.13562003696828     -4.46405827752946     -0.09354346281882
  H   0.49492114586437     -2.95597462686864      0.57073225379469
  H   1.12335583836554     -4.19156457425954      1.65985996273435
  C   9.11193132390224     -0.21114820784574      8.00147205198094
  H   9.17529589825868     -1.06626670787404      7.32562085505242
  H   9.90027808981045     -0.31317302767695      8.75195512533807
  H   9.30086223318512      0.68927791279065      7.41588262790356
  C   7.48589683840917     -1.41130097275704      9.49474813732739
  H   7.72227098332030      0.70629982584718      9.33876321005664
  H   8.25742498898818     -1.53324723992624     10.25970058477975
  H   7.49698601596616     -2.29650725534345      8.85555676682052
  H   6.51207967259647     -1.36741773504188      9.98386634401152
