22
Coordinates from ORCA-job 933optt
  C   1.39972224785587     -0.09464339893830      1.85526414336652
  C   1.32501702613538     -0.36635102581774      0.47522390674241
  C   0.32208405764571      0.42922059580842      2.52372600535751
  C   -0.90384716829564      0.71821226512093      1.86245642858371
  C   -0.96831518895623      0.43811879185215      0.46381285876533
  C   0.15032612934300     -0.09748373881570     -0.19354532982913
  H   2.17704554122621     -0.77973496407299     -0.04992480828615
  H   0.07352889484720     -0.30042157020742     -1.25804095535593
  H   2.31777043794683     -0.30170908718115      2.39431341529152
  H   0.39034970227109      0.63480642200896      3.58692643830962
  C   -2.01887050801105      1.25460030162912      2.52318971957587
  C   -2.18903701051972      0.71926041930703     -0.21938813264470
  C   -3.24546996439810      1.54885206462848      1.88622660100111
  C   -3.26156333268547      1.23896541020473      0.43880723721291
  O   -4.25916107232118      2.02663152931439      2.44126646693731
  H   -2.23119291891511      0.50352629527283     -1.28053500529374
  O   -4.45283675977098      1.52646276206009     -0.15847004321577
  H   -1.95926506981937      1.46391033568027      3.58585273544866
  C   -4.56231092591026      1.26794006312653     -1.52572299644108
  H   -5.57052728007738      1.55794374676290     -1.81841178566414
  H   -4.41260395464496      0.20492911803149     -1.74998274319107
  H   -3.83602288294578      1.84878366422498     -2.10691415667081
