36
Coordinates from ORCA-job 935optt
  C   -0.66996703717556      0.30093679654751      0.12323351059009
  C   -0.74529179905614     -1.07765654875319      0.09712696393644
  C   0.54251907427786      0.99756397940074      0.10687785415671
  C   1.71982152475692      0.23773222104958      0.06606969820256
  C   1.71625841024332     -1.13996956620340      0.06923707091701
  C   0.46471091453663     -1.88934528918326      0.07821350923598
  H   -1.61091837898698      0.83399955108777      0.13584835429158
  C   -2.08255001614993     -1.69582330477282      0.09593373425032
  C   0.60449929297348      2.45611946922053      0.12764116166339
  H   2.67019908884828      0.75339861400527      0.04193624722518
  C   3.01496280160821     -1.83842430477895      0.05869020620479
  O   0.43507626801521     -3.13772878208511      0.06709963031595
  N   -3.11485618441516     -0.94792325493172      0.50879557522052
  C   -2.32972854665349     -3.01478205495039     -0.35169486499981
  C   -4.32570183446237     -1.48665343999749      0.48498732445292
  N   -3.54443221798956     -3.54224143645306     -0.37888197567695
  C   -4.54940994352431     -2.77957663213573      0.04912239369629
  H   -1.50464802650550     -3.62480551876978     -0.68441781579798
  C   3.19002846892232     -3.15064159426339      0.55458683798777
  N   4.07868240153342     -1.17112402664229     -0.40400638882547
  C   5.25559157534929     -1.78115973998810     -0.37905863955140
  N   4.37076875640393     -3.74973543446894      0.58404770830222
  C   5.41040212622242     -3.06584156774877      0.10775324557624
  H   2.33664411745733     -3.69693782405212      0.92504091447326
  H   6.10602460192840     -1.22547381982707     -0.76251209395746
  C   -0.52744364002458      3.26315528626311      0.39299808680144
  N   1.78027465025348      3.05890769263529     -0.09884986991864
  C   1.81253938071638      4.38418968829499     -0.08165807074323
  N   -0.49155479546725      4.58125768875012      0.40110133109163
  C   0.68931268995719      5.15505451937046      0.15492608096635
  H   2.77488576634794      4.85221119067240     -0.26617667015605
  H   -5.14786245111209     -0.86559199143043      0.82778825916560
  H   6.38012273862572     -3.55120234121212      0.12083138480142
  H   -1.48387988287186      2.80896772368464      0.61760817831669
  H   -5.54595510674238     -3.20695882234716      0.03807343131057
  H   0.73265521215943      6.23765287401286      0.15639769647411
