32
Coordinates from ORCA-job 936optt
  C   2.88560651319460     -1.16357559045055      1.72822850471375
  C   3.80946977367979     -2.22714784021718      1.81675842194741
  C   2.78242249142742     -0.29311217880669      2.78397242346257
  C   4.58736039834154     -2.39317212360458      2.92900821675346
  C   4.50478333685919     -1.50612435207692      4.04800594548187
  C   3.56566500287924     -0.43301631423405      3.94245001896971
  C   3.39097564204508      0.53940680814487      5.01552943909239
  C   5.29926855080689     -1.66703924076829      5.19807012142524
  C   5.16290213337987     -0.74758438101775      6.25811479761502
  C   4.23648070701903      0.33585134801524      6.18540199030021
  O   2.57763507461874      1.47746308273420      4.93671831974631
  C   4.12441993661926      1.23811736499762      7.25843290282197
  C   5.94158633492555     -0.85257903763757      7.45075582764043
  C   4.88715831376954      1.11141313065855      8.39156208697908
  C   5.80741191936064      0.04291864879419      8.47510322129076
  H   3.40413052603477      2.03927047155866      7.14479671363686
  H   4.78969739540483      1.81474263821016      9.20931801174103
  H   6.64819827297731     -1.66919036645502      7.52034751704902
  H   6.41745268259640     -0.07030879274787      9.36520622436377
  H   3.90598529776309     -2.92481598091595      0.99163382658481
  H   5.28584946180240     -3.21725102525804      2.96564073622899
  N   6.25042951773171     -2.72940564397011      5.33999697423411
  H   2.09035407520334      0.54023813702773      2.76700297800046
  H   2.27434629149211     -1.04123545412248      0.84284561954857
  C   5.74087797444287     -4.06477725207239      5.53322336917721
  C   7.45883711184565     -2.65574523688556      4.55601170307875
  H   4.89786098671820     -4.02759654465960      6.22336720229972
  H   6.52023501929363     -4.69717568162530      5.97395343149135
  H   5.39831852140506     -4.56034198602906      4.60996859601175
  H   7.82371937437801     -1.62848577714168      4.56086207679846
  H   7.33963070398589     -2.96586551471463      3.50475652531656
  H   8.22799065799806     -3.29737531472988      5.00133625619809
