28
Coordinates from ORCA-job 938optt
  C   1.87440079575500     -1.61603835621354      2.32749029323321
  C   2.80987188327292     -2.68255777906351      2.30644070612879
  C   2.04540733312266     -0.60544846244580      3.23692439129018
  C   3.85299083858865     -2.71311092431001      3.18862519507748
  C   4.04059819340283     -1.68408964966443      4.16250605362552
  C   3.10704928250580     -0.60431206032745      4.15986623895112
  C   3.22313719883319      0.50205766360891      5.10255578056034
  C   5.09870601200686     -1.72016153767383      5.07294894712983
  C   5.24810545061830     -0.68729415598906      6.00799457283567
  C   4.33839955649621      0.41053267658766      6.04086527692889
  O   2.42689717178334      1.45792932516751      5.10829729765318
  C   4.50986246701167      1.43133856328442      6.99341298855816
  C   6.30737390146785     -0.68437054272502      6.96392885805385
  C   5.53753513558880      1.40452468530374      7.90194935788181
  C   6.44697876855448      0.32220116565912      7.87691209936218
  H   3.78979154708648      2.24063066151933      6.97501059482531
  H   5.65460423114716      2.19718138750446      8.63043443565880
  H   7.00957478092172     -1.51140913621732      6.95223818573588
  H   7.26376604265659      0.29069620935474      8.58991229260467
  S   2.60984356715472     -4.01121459601521      1.14170611675944
  H   4.56247948496083     -3.53208032117292      3.15188953513244
  H   5.79992207690761     -2.54637913288774      5.05943772577502
  H   1.35577664252734      0.22888307483843      3.28547559742786
  H   1.03702824386704     -1.62142217861072      1.64095616548356
  C   2.87644802793251     -3.10471258215579     -0.40117318966753
  H   2.76647210360866     -3.81567197613691     -1.21941081355229
  H   3.87799454550553     -2.67819387880362     -0.41968818880938
  H   2.13972471671509     -2.31134814241539     -0.51300651464417
