18
Coordinates from ORCA-job 940optt
  C   -0.33816699932199      0.78937409250919     -1.27167899127365
  C   -1.07943606230895      1.79387942626859     -0.71312791361021
  C   -0.54831896795351     -0.60446834254866     -0.93901939829287
  C   -1.57699087539117     -0.83226177822241      0.05439868728945
  C   -2.29213363916292      0.18973807598049      0.61195300707956
  C   -2.08932740324440      1.53613270417703      0.23838503577095
  O   0.10726241621935     -1.52957607605618     -1.46083098029075
  H   -3.04963390839271     -0.01370708095238      1.36114758275927
  C   -2.85982006332058      2.57288515905687      0.89380266247651
  H   -1.75752042262655     -1.86133685062464      0.34290555637805
  O   -3.45438168474382      2.46488083466407      1.94156728478323
  O   -2.89087397402969      3.82440767557796      0.29017841311758
  C   -3.16946241580767      3.92635608468534     -1.09118786751870
  H   -4.08461064451078      4.51149788703128     -1.21267201634039
  H   -3.30263279441861      2.94701389795357     -1.55050173930664
  H   -2.35159494409526      4.44080044057117     -1.60046906951764
  H   0.44772869115137      1.00900540989174     -1.98507292400373
  H   -0.86127630804205      2.82155844003694     -0.98405732950002
