33
Coordinates from ORCA-job 941optt
  C   3.52741324326658     -0.37768143489481      2.63655097111969
  C   4.13039925231436     -1.66239682241584      2.46227572723870
  C   3.86027121523705      0.41330845633078      3.69334349594817
  C   4.81309263147269     -0.00544002615193      4.66063849832600
  C   5.42949294176097     -1.28613472824221      4.49951316154412
  C   5.05256056605976     -2.08443157378310      3.37278221508684
  H   2.80244517814125     -0.03592990350858      1.90495553680752
  C   3.68075173862932     -2.49579433601223      1.27919132102527
  H   3.40330927333632      1.38958269606190      3.81503363557156
  H   5.53522836905669     -3.04929392351146      3.26322153001051
  C   5.17561226309782      0.78425362366701      5.75763333418770
  C   6.10684989237220      0.36551710907131      6.68671369531175
  C   6.73479843012799     -0.92196806617764      6.53626105665477
  C   6.36896294501508     -1.70850419491688      5.43457166790961
  H   4.72702774091309      1.76041703795272      5.90822247411871
  H   6.83545510743297     -2.68145504095447      5.30875775116314
  C   6.43462231588758      1.26536874019785      7.82483537962178
  C   7.68741942760149     -1.34145861004917      7.49524644094912
  C   7.39889507084975      0.75016461782732      8.73106671075455
  C   7.98491167483868     -0.50122416044930      8.55041738941295
  O   5.87856419150936      2.37926923689480      7.93377181018298
  H   7.66904535078210      1.36965088778392      9.57735911054807
  H   8.16587201379074     -2.30727099728454      7.39101327815765
  H   8.71729130192136     -0.83252843090967      9.28232719708232
  C   2.24397475798016     -2.98657039270991      1.48946406947627
  H   2.20719800457776     -3.65901455383913      2.34953719468337
  H   1.88195011478685     -3.52788319558244      0.61182847967977
  H   1.56638082860402     -2.15584633319977      1.68775522009097
  C   4.59181030736914     -3.67669666403604      0.96675038403495
  H   3.67833159234197     -1.83334891541361      0.40545471211795
  H   4.26374030055945     -4.17575722656156      0.05280439977830
  H   4.56388986665777     -4.41272467804778      1.77329137113505
  H   5.62687209170744     -3.35879819713546      0.83583078026970
