20
Coordinates from ORCA-job 946optt
  C   -1.75214334356231      2.47152932470786     -0.02257348892896
  C   -2.84151666104295      3.05705692120986     -0.64494519551250
  C   -1.88779220759290      1.36114472665722      0.87820060869535
  C   -3.23585490102225      0.90703202648434      1.07586330660532
  C   -4.31681116381271      1.50095344936672      0.44697899703560
  C   -4.13165737104547      2.57962425455987     -0.41716041793059
  O   -0.90241734729540      0.82609738718133      1.45000142404124
  S   -0.06541357436864      2.96682992184903     -0.21884405960526
  C   -0.24212422267799      4.33804115830567     -1.37129311043317
  H   0.76181385574036      4.71913106028416     -1.55537127487487
  H   -0.85229696688765      5.13987114378418     -0.95267350948160
  H   -0.67626664872920      4.01516312212663     -2.31872204111628
  S   -3.31676863372513     -0.46427711357202      2.18998866318042
  C   -5.08593701706129     -0.79442590624422      2.19945590075727
  H   -5.23838429413872     -1.64460581335606      2.86353383377908
  H   -5.45164346201910     -1.05337538535613      1.20466514658600
  H   -5.65345054331723      0.05631847377044      2.57960049461594
  H   -2.70675201142685      3.89443187291361     -1.31852438459607
  H   -4.98011464833337      3.04108369091838     -0.90573795881552
  H   -5.32212883768113      1.13585568440904      0.61762706599858
