26
Coordinates from ORCA-job 947optt
  C   2.13972143696979     -1.07664623818695      1.71041131590882
  C   2.98854179180172     -2.20529365587298      1.70746284444670
  C   2.25159375667680     -0.17312703708673      2.73815606432988
  C   3.90480043513254     -2.40755980295940      2.69688768487298
  C   4.03879998032149     -1.48256595118918      3.77401668224851
  C   3.17938978421708     -0.34137110774478      3.77512483404175
  H   1.41797821668808     -0.93889302735388      0.91148774699729
  H   1.62159109808858      0.70716996253558      2.78208873282156
  C   3.24243573444044      0.66086605033678      4.83486115982003
  C   4.97358281199734     -1.67292910390579      4.79780943949756
  C   5.07425097095091     -0.74186511110428      5.83771062937861
  C   4.23292970721942      0.41039443714316      5.87600016392984
  O   2.50199989998788      1.66026143610298      4.84781146729229
  C   4.35811768569546      1.32550142648629      6.93317628785141
  C   6.01384580809615     -0.89648948117504      6.89951356026465
  C   5.26927906187378      1.15645417305771      7.94537844651549
  C   6.10236111715914      0.01988892400090      7.90880895180729
  H   3.69609313936246      2.18291956800584      6.91648697568906
  H   5.36873788887982      1.85922613181787      8.76156359707471
  H   6.66919062411104     -1.76397882680864      6.89710212037189
  O   7.00512113348272     -0.11429928424487      8.94008749452153
  O   2.90107970959070     -3.13143922545461      0.69022906129890
  H   4.53833373515635     -3.28579677256298      2.65928868075275
  H   5.62046850586982     -2.54248597671330      4.78430706934498
  H   2.21714439061132     -2.83979155008493      0.08162560430694
  H   7.50338157561908     -0.92372995703874      8.79487338461440
