44
Coordinates from ORCA-job 952optt
  C   2.17376130227949     -0.99633813055390      2.27729804051199
  C   3.11558217046007     -2.04574911159462      2.23673603771272
  C   2.21271644897310     -0.05312864307063      3.28205717456966
  C   4.09091595996992     -2.12657055197922      3.18242113764158
  C   4.17036141894883     -1.18670237007329      4.25349179063729
  C   3.18641059248932     -0.14440973055562      4.31871751573747
  C   1.24924474914151      1.07484872189535      3.14561846961035
  C   3.16161443250387      0.75314005615091      5.47572098590795
  C   5.18033102861986     -1.30833443905310      5.21269754704616
  C   5.25186705131192     -0.40670507475462      6.27737803586934
  C   4.26814815768202      0.61042575623121      6.42028914742632
  O   2.25935160808472      1.58380939682315      5.67384274821270
  C   4.34159029545298      1.49146090843974      7.51282693809778
  C   6.27757520215806     -0.47515895879039      7.26354565525507
  C   5.33961756423423      1.40224210979978      8.44798736280890
  C   6.33401999450775      0.39590780874377      8.32187515446815
  H   3.57412615958731      2.25269951257285      7.58032783026407
  H   5.39556817993164      2.11209852064833      9.26391084346623
  H   7.01384815201921     -1.26791682677005      7.17819370159336
  C   7.40948965456472      0.28560926810225      9.33408946759225
  H   3.07102546835009     -2.77408820206380      1.43488493245475
  H   4.83057550549714     -2.91893682963275      3.14513956877353
  H   5.90627318907030     -2.10840224637758      5.12734494838045
  H   1.43918828841582     -0.89742329332081      1.48790836844591
  C   -0.10947674317813      0.82561598599143      2.97779839937525
  C   1.69627195674587      2.39448451476116      3.06088670805521
  C   -1.00452685628034      1.86357471262110      2.73961683252229
  C   0.81162555275191      3.42754100705216      2.81085759065496
  C   -0.54737027614408      3.16847122624556      2.65109160708447
  H   -2.06027984437845      1.64791203208682      2.62656573691374
  H   -1.24013511132276      3.98007797818596      2.46539022917028
  H   -0.46752704832004     -0.19413777428628      3.05232533277641
  H   2.74846845854997      2.59761936396704      3.21177886482067
  H   1.17868378784574      4.44487843531244      2.75122515592948
  C   7.14658264263494      0.51498820353024     10.68726688300522
  C   8.71640859573474     -0.05121344347859      8.97160669736075
  C   9.71848681653756     -0.16401136519651      9.92407049904686
  C   8.14729390469303      0.40432142508480     11.64162141718288
  C   9.44006644098470      0.06302615076581     11.26585351989146
  H   7.91479748579120      0.57881284985036     12.68508811731020
  H   10.22205079515124     -0.02275231498351     12.00967567722282
  H   6.13667045276254      0.76192131161738     10.98988761082612
  H   8.94531295055762     -0.20587989296406      7.92463870547728
  H   10.72466346462860     -0.42077805698035      9.61580101288925
