22
Coordinates from ORCA-job 953optt
  C   -0.28999608345287      0.53247390085529      2.09132342122526
  C   -0.26932593451356      0.23769690015774      0.71006633578112
  C   -1.42927224499043      1.05258719928469      2.65306157376921
  C   -2.58197709519261      1.30032793411532      1.88393813778228
  C   -2.56946637674586      1.00469802507179      0.49265173106211
  C   -1.37620686493536      0.46778911974173     -0.06140299021074
  H   0.62742385706841     -0.17333033880425      0.25957172223699
  H   -1.35881910206589      0.24025556206379     -1.12258890811191
  H   0.58862819731641      0.34759683189087      2.69770136749835
  H   -1.48653976547341      1.29270666056864      3.70792164641716
  C   -3.76418965751622      1.85587004008233      2.54145294759678
  C   -3.72073087891997      1.24801863366565     -0.28310831717171
  C   -4.88800496441181      2.07064576156729      1.68491751024062
  C   -4.84812679175497      1.77204610897365      0.32575786581096
  S   -6.28155829892080      2.73982603944666      2.54859392175387
  H   -3.71742302286935      1.02509269225023     -1.34295116264866
  H   -5.72251969711489      1.95122307072557     -0.28933000273327
  O   -3.79193897862061      2.12390081013417      3.76553771699672
  C   -7.49026016736262      2.86489021363523      1.22088557685049
  H   -8.39790708311140      3.26887757999706      1.66795792983647
  H   -7.71550640423323      1.88950992379656      0.78689814321625
  H   -7.15657264217890      3.54017733077996      0.43155383280160
