26
Coordinates from ORCA-job 954optt
  C   1.06034181134715      0.14682901806274      1.96307666132521
  C   1.03110174117847     -0.15569579448691      0.58805516823231
  C   -0.08432935542997      0.61388636529064      2.56900411260127
  C   -1.27434149063211      0.79327429890913      1.85070171510311
  C   -1.31593741168738      0.49052526985064      0.46548050408605
  C   -0.12149524498506      0.01172400369242     -0.13634078675925
  H   1.92577546281899     -0.52402911668538      0.09732903503273
  H   -0.13614246136291     -0.22386792212158     -1.19601551414201
  H   1.97327556852396      0.01266985763045      2.53089448994564
  H   -0.11231657911058      0.86197150321966      3.62352750855319
  C   -2.47046167802563      1.30217687103206      2.54154165953411
  C   -2.50331198478572      0.66683524188697     -0.27914452699544
  C   -3.62444060686903      1.45200820454779      1.72759423843166
  C   -3.65104348924661      1.13407984433414      0.36098538572998
  H   -4.49940132707182      1.82819217976764      2.23618236442923
  H   -2.48366657113006      0.43226602800854     -1.33243806490915
  N   -4.85722261831076      1.27603976111137     -0.36394470339510
  O   -2.44418371460177      1.58016717888405      3.76416736852428
  C   -4.76049910023695      1.28466456882867     -1.80409970198395
  H   -4.11303948082860      2.08885121752681     -2.18652005804158
  H   -5.75751989300532      1.40832912116302     -2.22681090793716
  H   -4.36371182735956      0.33627116207012     -2.16663059179253
  C   -5.85113997458224      2.17772274878769      0.17467365264190
  H   -6.70152632903480      2.21307792869969     -0.50638071660489
  H   -5.46844544905997      3.19923885095359      0.31630300655235
  H   -6.21443799651159      1.82238160903601      1.13779870183800
