30
Coordinates from ORCA-job 955optt
  C   2.13548326339654     -0.73742559585844      1.64786276622561
  C   3.03809245978930     -1.81672556899483      1.55352301440904
  C   2.18925936349318      0.14522128398030      2.70483071960765
  C   3.98575586025384     -2.00310517996858      2.51286478776606
  C   4.09266918286438     -1.12212051125323      3.62972330973479
  C   3.17182454923000     -0.02847360621364      3.72488172078473
  H   1.38575007300805     -0.59694753671639      0.87789793434054
  C   1.18915417996797      1.27204384248728      2.72640941071460
  H   2.97382198527319     -2.49759173316074      0.71153105321860
  H   4.68440896236973     -2.83020895460346      2.44687295262276
  C   3.26126450375100      0.88439486008442      4.86477359161386
  C   5.08427956356225     -1.34440642115777      4.59478840708296
  C   5.20997072654156     -0.49111149100794      5.69458488831829
  C   4.31996697665465      0.61105865729806      5.83841798070276
  O   2.49158766735223      1.85132755053511      5.02363683216558
  H   5.74937749158649     -2.18801465591214      4.46627228421145
  C   4.44502487140646      1.47405699366560      6.94129152848892
  C   6.21567268231578     -0.68153748294170      6.70313987375094
  C   5.41194867732819      1.27918380329693      7.89348866673734
  C   6.29679606664670      0.18654017216215      7.75862219961938
  H   3.74358975386804      2.29670306957981      7.00194933199835
  H   5.50296586548771      1.94877642685810      8.73987499051610
  C   7.16927157810991     -1.83506230138870      6.58204382405764
  H   7.06436595942679      0.02730233470753      8.51049498814808
  H   0.54793420898954      1.20596769579584      1.84475862805440
  H   1.68606432706467      2.24093749382028      2.74774482520906
  H   0.57909787899130      1.24233186429512      3.62801752714172
  H   6.63424365523071     -2.78903539513916      6.56097488172127
  H   7.86868497585794     -1.84996247429380      7.41862552887730
  H   7.74295269018168     -1.77689713995601      5.65234155215992
