25
Coordinates from ORCA-job 959optt
  C   2.29647898008072     -1.24101438613946      1.81482995218766
  C   3.17534566664854     -2.35131530789116      1.85418738870182
  C   2.36252345628131     -0.30001349834985      2.80528033702434
  C   4.07884051377955     -2.48361783148196      2.86817485760466
  C   4.18127564593950     -1.52451524858260      3.92421050254334
  C   3.28775088270500     -0.41507676439076      3.86306148835620
  H   1.71086785726419      0.56422568219171      2.81542423703854
  C   3.31110331182483      0.62081848622310      4.88949288733051
  C   5.10766608480254     -1.66776732910761      4.96039750717678
  C   5.16008775227798     -0.69954845400602      5.97083532198816
  C   4.28735394815162      0.42860266435419      5.95649464958192
  O   2.54759770752180      1.60422194884059      4.85737161260059
  C   4.36224466405873      1.38216922980715      6.98913663832341
  C   6.08258438420230     -0.79608089062224      7.05602485554451
  C   5.25879954444486      1.26024077762762      8.01998993083504
  C   6.13084881768419      0.14623055142272      8.04325829568416
  H   3.67584215438808      2.21835132031908      6.93023132757789
  H   5.30301436102212      2.00252739178579      8.80742999515958
  H   6.75437225062976     -1.64771222253917      7.08068581097219
  H   6.84468175062276      0.03993763211561      8.85309312131423
  H   3.13531813830002     -3.10759806805389      1.07448162978760
  O   4.94518655598370     -3.55184065382902      2.93287062203220
  H   5.77470823085522     -2.51774137735279      4.98197519248438
  H   1.58460782210654     -1.15102476101608      1.00402803867181
  H   4.77709951842406     -4.11716889132497      2.17425379947835
