32
Coordinates from ORCA-job 962optt
  C   2.10809257134946     -1.74986263129933      2.05473803363147
  C   3.14382565459306     -2.71417450540323      2.06370181787627
  C   2.08975236283155     -0.73724615148094      2.97261716102612
  C   4.13890995999563     -2.62860838767997      2.98935658727660
  C   4.15916058767793     -1.58850929706167      3.98378058396135
  C   3.10117336327309     -0.61693874531103      3.97407352576300
  O   1.02844362767305      0.13253474054579      2.89011423549153
  C   3.06677121299070      0.42373350882716      5.00122787068451
  C   5.18363255142852     -1.55964720008651      4.92832520605780
  C   5.19430368855552     -0.57090524978825      5.91951464569443
  C   4.16453930939009      0.40493550479063      5.97113030799861
  O   2.17903779961267      1.29248505642578      5.07916563879149
  C   4.18772685574389      1.38662896489343      6.97895123208346
  C   6.21841422221828     -0.50450518960454      6.90912914778997
  C   5.18663510174402      1.42954933161327      7.91923695386400
  C   6.21595928143091      0.46171616080597      7.87527936856960
  H   3.37914530223856      2.10708043419490      6.97706011582545
  H   5.19058437641579      2.19249755512937      8.68796425773755
  H   7.00882761910863     -1.24710324980360      6.87871445307918
  H   7.00920368176299      0.48625776627813      8.61464579834520
  H   3.12909587097383     -3.50437414910740      1.32612277016151
  O   5.18561618814225     -3.51400866584750      3.06417925599447
  H   5.96291994283357     -2.30657746678303      4.90214394594848
  C   1.36162220497622      1.38950039498676      2.34124472667369
  H   0.46136097528370      2.00171576678289      2.38605040336687
  H   1.67314032792473      1.27087108309804      1.29544834445223
  H   2.14594381979425      1.87591690782077      2.92072051624766
  H   1.31234398606161     -1.79924120221305      1.32365407361907
  C   5.20804039383407     -4.55711848681740      2.13488615016934
  H   4.31994363519441     -5.19333662066346      2.22240099711493
  H   6.09594454498719     -5.14874934232221      2.35138679706311
  H   5.26683897995957     -4.18042663491971      1.10734507764081
