40
Coordinates from ORCA-job 963optt
  C   2.27367454802784     -1.38481271288399      2.00106503120506
  C   3.29093811600637     -2.35998658509007      1.98947004417676
  C   2.21505068892035     -0.43251027058930      2.99988395020616
  C   4.28901756033848     -2.36211502010215      2.91749540952879
  C   4.29734321686743     -1.36668551811573      3.96460819586209
  C   3.19611231582898     -0.44221195550370      4.05197559610578
  C   3.06715041959156      0.39522335273637      5.24839044593364
  C   5.34963251770057     -1.33753796642050      4.88085752227896
  C   5.33291689025221     -0.44533049112626      5.95891109536675
  C   4.21197026248841      0.39803304454450      6.16495090058253
  O   2.06510606568076      1.08228790791331      5.51715380191717
  C   4.18651825404347      1.26296270335531      7.27306893373113
  C   6.40393856167321     -0.36332331087694      6.89571334545888
  C   5.23184100428774      1.32468217231690      8.16202695292306
  C   6.35560326052672      0.49239162414561      7.96090734135128
  H   3.30474967593933      1.88055582927768      7.39112961298597
  H   5.20054988061387      2.00164384934805      9.00684771456996
  H   7.26658917276413     -1.00427763187703      6.74625421480480
  H   7.18601040045953      0.53225930171323      8.65763297442944
  H   3.27971785331783     -3.10469587868648      1.20248458157335
  N   5.33526866507937     -3.33809442088235      2.90440888201727
  H   6.19396438473490     -1.99860129959150      4.74646747779156
  N   1.19921035465229      0.53412605380329      2.96921147178772
  H   1.55623320018596     -1.37884586172160      1.19403301994301
  C   1.59317728428057      1.92813745111077      2.97200125896843
  C   0.06500174919160      0.30331110777064      2.11945152099003
  H   -0.32176862794075     -0.70510224768514      2.26656661257193
  H   0.28473518046575      0.43901051711675      1.04493392117453
  H   -0.71655290667800      1.01808337848258      2.38722302477417
  H   2.56765047372527      2.05079067189219      3.42921808297759
  H   0.87920581077999      2.52273567969044      3.54480212908119
  H   1.63629857177232      2.31014713755610      1.93794355785335
  C   5.61324287446433     -3.94505680225625      1.62651911143181
  H   4.82848547280411     -4.64779989711606      1.29563439757498
  H   6.54621492098716     -4.50965002408794      1.69784827079929
  H   5.72478756782683     -3.17302921680732      0.86553019668416
  C   5.17581871244911     -4.35578766036627      3.93042222017714
  H   4.36068023175654     -5.05474737357174      3.67876285905367
  H   4.94791939022412     -3.88701411345582      4.88532054235176
  H   6.10248602390934     -4.92761552395952      4.03042377700446
