22
Coordinates from ORCA-job 964optt
  C   1.14736379384472     -0.01472375079829      1.96841622487143
  C   1.08480908483615     -0.49933041766362      0.64182516520740
  C   0.11338339964727      0.70098403861940      2.50756630528685
  C   -1.06503867130613      0.98232759532200      1.75345237432297
  C   -1.12331329437787      0.48775019493409      0.41150936320997
  C   -0.03741357551605     -0.24259171706038     -0.10709074120686
  H   1.91018637845826     -1.06359859590195      0.22598825853022
  H   -0.10745538257430     -0.60568375319148     -1.12831620049200
  H   2.02941861440621     -0.21350888409565      2.56742550990231
  H   0.16895933200507      1.07405575397323      3.52171127945428
  C   -2.13637513678558      1.71615974972896      2.27896037992106
  C   -2.29552922653021      0.75608890963777     -0.34044424836737
  C   -3.32029926703500      2.00436564729761      1.54217745844779
  C   -3.32882401184834      1.46164796786202      0.19407815556135
  O   -4.29163098789087      2.66883872908073      1.99263166098831
  H   -2.35277425433704      0.38414054986773     -1.35968849432797
  H   -4.22209009562682      1.66861921978791     -0.38571479189763
  O   -2.00078287184323      2.21227650638053      3.56436416061993
  C   -2.94700138143487      1.67843753787112      4.46723534311589
  H   -3.96173866969659      1.88132996765834      4.12023473678847
  H   -2.77701471668409      2.16088439800296      5.43139800490544
  H   -2.80074905971067      0.59635035268693      4.57717009515811
