28
Coordinates from ORCA-job 966optt
  C   2.32456433260341     -1.35473122466321      1.79280525827346
  C   3.22264722410808     -2.43719628158393      1.84342966065966
  C   2.33341715065746     -0.39316475189511      2.78980139294068
  C   4.11639562769370     -2.56691688996368      2.86386174941591
  C   4.18176441196753     -1.59140828392320      3.90768037213097
  C   3.28091626057063     -0.47225226001269      3.86682000660952
  N   1.40661341474629      0.62619154554228      2.77220660711045
  C   3.35672030662565      0.56645505870237      4.87207935389339
  C   5.11379476804820     -1.72122915289055      4.93597754367169
  C   5.19881091285653     -0.75181580577194      5.94280447371518
  C   4.34568680991209      0.38155345111359      5.92276432811026
  O   2.62924441992950      1.59992150751092      4.87372591155865
  C   4.43938331005343      1.35131795703331      6.94325420130853
  C   6.13261280554168     -0.84181573762255      7.01544024242465
  C   5.34769294038226      1.23947020685730      7.96146920272395
  C   6.21141564134496      0.11743756003720      7.98337938553056
  H   3.75665069042255      2.19217608504748      6.88697439704860
  N   5.49254704552710      2.23723144656148      8.96816234488759
  H   6.79889809387207     -1.69742718823467      7.04809195131370
  H   6.94524242919397      0.03390341491939      8.77900579790097
  H   3.19320678995094     -3.18254019418728      1.05529078356863
  H   4.80123576444412     -3.40611174017348      2.90006421817818
  H   5.78215736496868     -2.57472455927138      4.94897202871975
  H   1.59984337083154     -1.27727923251364      0.99035436848782
  H   1.01978073188262      0.85416082407117      1.87289597162641
  H   1.61545609992087      1.37833546495113      3.42811568759435
  H   4.70720081484847      2.87424948986801      8.96125874094398
  H   5.56922046709547      1.82992929049174      9.89135401965223
