28
Coordinates from ORCA-job 968optt
  C   3.25063139465366     -0.63781975872882      2.86791413458155
  C   3.78621818748661     -1.95174750077293      2.78068773408235
  C   3.71265060908782      0.22189750253097      3.81910632063319
  C   4.71386066345281     -0.17386862869980      4.74735059739110
  C   5.24377365120997     -1.50303544308060      4.68584137947090
  C   4.74714760774898     -2.36141409106700      3.65206330516923
  H   2.48294496762583     -0.32808973278640      2.17016894915880
  H   3.44148089120809     -2.64541937335455      2.02339489659830
  H   3.32019149596846      1.22997938965346      3.89054352065298
  O   5.25380885133139     -3.64257735027531      3.54934557256564
  C   5.19951161295954      0.68883848201198      5.73848759361029
  C   6.15753117086681      0.29820321283773      6.65084227619560
  C   6.67777959257003     -1.04463485559921      6.60885269321118
  C   6.19715573298988     -1.90849428777118      5.61492446442683
  H   4.82482116922372      1.70382183011072      5.81556817082561
  H   6.56754421671538     -2.92676125107408      5.58012434864027
  C   6.61918384210490      1.28275335470026      7.66704730372772
  C   7.64414388814843     -1.44058894526650      7.56354596722698
  C   7.58774044542149      0.78520957167928      8.57830534275590
  C   8.06234689116339     -0.52313589750604      8.50766597158127
  O   6.16100796049227      2.44502838955851      7.67801223216258
  H   7.95155394941700      1.46437726917758      9.33936071616566
  H   8.03811211706662     -2.44889982371288      7.54333602895630
  H   8.80424159654543     -0.83724157109486      9.23749593435416
  C   6.48206488674930     -3.69481382133219      2.85020811726197
  H   6.84024710470549     -4.72202603570986      2.90690894933481
  H   7.22066276167123     -3.02482804392459      3.29818869698940
  H   6.33842274141478     -3.41537259050357      1.80122878226865
