32
Coordinates from ORCA-job 969optt
  C   2.45848659654692     -1.26165748272271      2.03885592836926
  C   3.34793092938354     -2.35461422638013      2.16026991393694
  C   2.48407562847261     -0.25925400554690      2.98834240378172
  C   4.22378205089536     -2.43302141534670      3.19287984605408
  C   4.28160135861282     -1.41370673718075      4.19856237492573
  C   3.38570699507732     -0.29159226767790      4.09715130108026
  O   1.64906994233172      0.80763004427473      2.90937579839022
  C   3.41888823595689      0.76665445753368      5.10479932017527
  C   5.19516407876723     -1.53093105272990      5.24008750095848
  C   5.26923590447837     -0.54209617890854      6.23539242299334
  C   4.40905070880278      0.58514816290963      6.18432464071547
  O   2.69146203680367      1.77014198848647      5.10664867736522
  C   4.48532689087790      1.57034802454827      7.17779507837404
  C   6.18204549897270     -0.61113349197531      7.31724257907995
  C   5.38213045816886      1.47372532053734      8.21345863823658
  C   6.24541779008059      0.36279141256576      8.28361044959991
  H   3.81434978575180      2.41697428977735      7.10791486916657
  O   5.38244801219054      2.49524687512538      9.14575370026909
  H   6.84990168981515     -1.46394735586001      7.37714562186793
  H   6.96115609265435      0.26204437575090      9.08865584319801
  H   3.32067806113179     -3.13729451050646      1.40973946701301
  H   4.90344663549317     -3.27309731831198      3.28001247570518
  H   5.85349728421465     -2.39086982004380      5.28076678858939
  C   0.75650695876619      0.87494904046419      1.83666562785706
  H   0.19546510409645      1.79818236787314      1.96990593090601
  H   0.06224970450385      0.02699545601185      1.83135895881907
  H   1.27943188436210      0.90508619865712      0.87394577701598
  H   1.77461484896847     -1.22855241141339      1.20561197305403
  C   6.30529337138993      2.40785823140115     10.19127921407420
  H   6.14167710454847      1.51533246518251     10.80650687090612
  H   6.16227568844091      3.29389101834025     10.80812634911305
  H   7.33778266944248      2.39210854516473      9.82321365840824
