22
Coordinates from ORCA-job 972optt
  C   0.80765095210205     -0.08620812299468      2.09714460907048
  C   0.94553403248267     -0.54098873635734      0.76105839563517
  C   -0.31367876010009      0.60029081685258      2.48273952021290
  C   -1.38194304086268      0.88698664254616      1.56679646634773
  C   -1.21436756052889      0.41376271074050      0.23042709502968
  C   -0.05061858554805     -0.29103514836898     -0.14253412867693
  H   1.83856507133939     -1.08057619968000      0.47235240970997
  H   0.03953257885891     -0.63260716226307     -1.16893047048054
  H   1.60127278224712     -0.28940292009922      2.80283280334614
  O   -0.51341420996870      1.06845888077320      3.75552703800354
  C   -2.52744193319763      1.59015539555707      1.94526414977367
  C   -2.26401853266429      0.68810251750105     -0.68710668583646
  C   -3.58471586650226      1.87911905215433      1.03608184277122
  C   -3.37748877869555      1.37362737291888     -0.31671823212330
  O   -4.62564498971506      2.51491311263939      1.33587174914751
  H   -2.15420132725782      0.33270793493809     -1.70866505857758
  H   -4.17023642227351      1.57561087039426     -1.02943652214443
  H   -2.63224832781297      1.93952724900581      2.96316805414097
  C   0.48628950321111      0.82266778337750      4.69957938703163
  H   1.43707312154433      1.28466709645072      4.40986155451313
  H   0.65019796064654     -0.25149032715307      4.84327170660076
  H   0.14472233269546      1.26167118106677      5.63551431650459
