21
Coordinates from ORCA-job 973optt
  C   1.37057868424178     -0.08321937341411      1.85716028303634
  C   1.32371027016218     -0.36518340209043      0.47456988654795
  C   0.28169032642133      0.43866347850741      2.50343239238921
  C   -0.93653266383428      0.71876691506913      1.81745329837634
  C   -0.97242623092214      0.42849139464386      0.41728322314289
  C   0.16242568609563     -0.10686642715681     -0.21639727085058
  H   2.18843055915692     -0.77775219395706     -0.03004430690390
  H   0.10436003486021     -0.31633585989867     -1.28082842363343
  H   2.28027409950929     -0.28259020775319      2.41328175398487
  H   0.33081339743633      0.65098744545011      3.56639942687075
  C   -2.06258266218981      1.25323093649376      2.45349284953765
  C   -2.18224139899026      0.70243125240288     -0.28006309673240
  C   -3.27340554383619      1.53291370625312      1.77440330526082
  C   -3.27730467129967      1.22104736780414      0.33664123000961
  O   -4.30491840958147      2.01447610616795      2.31079070865004
  H   -2.21880522282096      0.48354708667092     -1.34583029523972
  C   -4.55105653627210      1.50854297238695     -0.39524302411419
  H   -2.02426367843339      1.47006905933534      3.51598466056078
  H   -4.47133729779339      1.24875806921663     -1.45263172973840
  H   -4.81440818908643      2.56433838030587     -0.29639067300528
  H   -5.37915055282354      0.95679329356220      0.05606580185062
