32
Coordinates from ORCA-job 975optt
  C   2.61962231799558     -1.34250948146987      1.94482451541473
  C   3.43574014265585     -2.48654387641113      2.10352152360209
  C   2.69775791902580     -0.33159478757969      2.86332626049100
  C   4.28219690789092     -2.61816614617451      3.17402280901147
  C   4.33516171901485     -1.59774955992607      4.19306531853993
  C   3.54222760199819     -0.42874161615065      3.98508779881212
  C   3.55089289405769      0.67738993237777      4.93886227043541
  C   5.11077551820443     -1.73657043368854      5.34928457375813
  C   5.13582441147138     -0.71063126667578      6.30337586495445
  C   4.38947854038132      0.48872167551273      6.11705667919781
  O   2.88120122535107      1.71153990398643      4.76172373877652
  C   4.44421523611823      1.50573415667664      7.08771692918693
  C   5.90545441910297     -0.81843008283401      7.50072197912176
  C   5.19931524542040      1.37567400262843      8.22587472579000
  C   5.93767190385184      0.18591556576096      8.42618569529781
  H   3.85797944100381      2.39610411394211      6.89433936575408
  H   5.23153699488986      2.16709524208925      8.96441317960399
  H   6.47546004509214     -1.72760750070939      7.66186127900816
  H   6.53536827250981      0.06977295764801      9.32396233288579
  H   3.39255089615201     -3.26631948629011      1.35320021232688
  N   5.12844074450092     -3.75805535415391      3.33179015611328
  H   5.66019071773856     -2.64971790283802      5.53202332254341
  H   2.10683997033445      0.57120628989296      2.77229148196594
  H   1.95571888055961     -1.27234582813758      1.09206734093015
  C   4.73374665515713     -4.94761485532554      2.61918098940477
  H   3.68270253506495     -5.16371297696912      2.80954117097082
  H   5.33676554057833     -5.78707961227504      2.97335065190842
  H   4.88136890375850     -4.87173542932005      1.52787311291857
  C   6.53293616789339     -3.46280845062159      3.09725623315808
  H   6.74098281020298     -3.33780449054743      2.02159157201021
  H   7.14974824145592     -4.28264069894470      3.47479129860838
  H   6.81218718056686     -2.54679400347247      3.61249561749866
