24
Coordinates from ORCA-job 978optt
  C   2.11410445470783     -1.03567742924330      1.71719791411182
  C   2.95305489728390     -2.16881049550353      1.68916019155726
  C   2.23842199892883     -0.14259398217847      2.75149149358127
  C   3.87006773663805     -2.36492077251321      2.67909448841892
  C   4.04462353195515     -1.46902103842675      3.77944253895348
  C   3.17671283449156     -0.32819130307670      3.77809587102717
  H   1.38761159389063     -0.88544678514238      0.92933659934439
  H   1.61674145538167      0.74173457736830      2.81661228385870
  C   3.24326633590513      0.67133377200824      4.84274151104431
  C   4.98018514133284     -1.66030633807054      4.79588428799214
  C   5.07592734764862     -0.72583601589232      5.83776989444006
  C   4.23519406523483      0.42193071994597      5.88260497772027
  O   2.50172177384669      1.66869857629675      4.85914490974168
  C   4.35559141044864      1.33856623212976      6.94295360661888
  C   6.01823444196631     -0.88435628045608      6.89677899626419
  C   5.27105338272077      1.15822032278370      7.94843297645342
  C   6.11262226521948      0.02283361541880      7.91399175545317
  H   3.69052689595228      2.19346982755982      6.92756460236922
  H   5.35245476748913      1.87186658399514      8.75878227155879
  H   6.66782716409718     -1.75289949772542      6.87790740119636
  H   6.84100044663298     -0.12985228039514      8.70296056586645
  H   2.87932445168229     -2.89216224978031      0.88714610225537
  Cl  4.87855180131421     -3.79482365820515      2.58288755506744
  H   5.63129980523090     -2.52222610089714      4.78836720510513
