25
Coordinates from ORCA-job 979optt
  C   2.34246584480186     -1.31496125490099      1.79146831849028
  C   3.22707185429971     -2.40781014546542      1.86264959285155
  C   2.37373164889139     -0.34120618787230      2.77084469331326
  C   4.11426422541113     -2.51401683675198      2.88948683763372
  C   4.17559623220353     -1.52676047603393      3.92201729408137
  C   3.27806677397432     -0.40444497767888      3.86273669893409
  O   1.50948779972528      0.70856436617696      2.68297031279997
  C   3.31364127299779      0.62679515612371      4.90324051806147
  C   5.09650309342704     -1.66530915330993      4.96086596752013
  C   5.16976024180805     -0.70933494867621      5.98138858582895
  C   4.30464467427239      0.41775561903286      5.97044061526136
  O   2.57704399328121      1.62160976754017      4.91933715130959
  C   4.38717092273126      1.36814298007219      7.00053636838176
  C   6.09576372425096     -0.81628433101464      7.05975489825465
  C   5.28892989921137      1.24167910582595      8.03031444046993
  C   6.15331056161820      0.12578222249521      8.04953990900408
  H   3.70469887567192      2.20746410881655      6.94462954435336
  H   5.33933707131346      1.98408529448052      8.81717386657322
  H   6.76299247013884     -1.67173603329492      7.08034450010630
  H   6.86995163642544      0.01437172888317      8.85631541477605
  H   3.19541596807499     -3.16738092381595      1.08919613542014
  H   4.79629577684188     -3.35451448659906      2.94534440266827
  H   5.75911751292817     -2.52290823284150      4.97472266460292
  H   1.63437810435553     -1.22870019665918      0.97382617813196
  H   0.98486982134418      0.57695783546762      1.88728509117148
