22
Coordinates from ORCA-job 97optt
  C   -0.84881760427332      0.95346215226680     -0.23301275524227
  C   -1.00972044016320     -0.40214250628582     -0.12266162966138
  C   0.42685048816018      1.54858905115686     -0.21125085946678
  C   1.56060046314637      0.76636282466680     -0.07614103348343
  C   1.44449283569843     -0.64865409563195      0.04227581007660
  C   0.11770456643574     -1.29278083777037      0.02206553224976
  C   2.58539465561091     -1.42456252483151      0.17655702260152
  C   3.84510737823636     -0.82268541444010      0.19476487013015
  C   4.04176730498462      0.54560130440909      0.08458014969637
  C   2.88674492234275      1.42400512141917     -0.05761543606834
  H   4.72328203412026     -1.45399732093398      0.30009930383975
  C   5.40665518667814      1.05137131170218      0.11498588442894
  O   2.98773793187492      2.65501047522693     -0.15940410857932
  H   2.47260129783361     -2.49686644163667      0.26504827909154
  H   -1.72261011464550      1.58792636084476     -0.34006842271146
  H   0.54914132917367      2.61980595806753     -0.29898001430263
  H   -1.99106777039020     -0.86088980874309     -0.13936135986337
  O   -0.02277706898176     -2.52333157872717      0.12195467566276
  C   5.84651849583550      2.31140337754574      0.02676761779841
  H   6.15516873547027      0.26768824066846      0.22590057368902
  H   5.16473089171846      3.14019055068441     -0.08447897408056
  H   6.91192448113373      2.50737380034194      0.06766487419471
