20
Coordinates from ORCA-job 980optt
  C   1.27474330581563     -0.06762134044891      1.97566674495782
  C   1.21507399046930     -0.34884723951595      0.58993547481395
  C   0.18705085477135      0.48620452795011      2.59996941226108
  C   -0.99768361010179      0.78626529240490      1.89503564819294
  C   -1.06662649981453      0.49968221786984      0.49845891680721
  C   0.07930980384661     -0.07259593282418     -0.11968383914685
  H   2.07305256302451     -0.78530673903531      0.09039821867053
  H   0.03376628933250     -0.28986894773491     -1.18252216170800
  H   2.17675135228062     -0.28934234637311      2.53390984496744
  H   0.19434231036096      0.71615048683966      3.65875891909075
  C   -2.12170807628470      1.36205527826514      2.61163895719857
  C   -2.24506145540098      0.78611632797419     -0.21356033732761
  C   -3.27923651924140      1.62756746578469      1.82212068057014
  C   -3.31637896793905      1.35080318981268      0.46207294023873
  N   -4.37276021067614      2.22963877635200      2.49956698257512
  H   -2.30212104296839      0.57544749119352     -1.27465628737090
  H   -4.22480897657432      1.59494979756511     -0.08356693682922
  O   -2.09821787739744      1.61077284554225      3.85234880545000
  H   -4.13897183184356      2.21543821641036      3.48979862502775
  H   -5.23809540165917      1.72725063196790      2.34883939156053
