24
Coordinates from ORCA-job 986optt
  C   -1.21600246216975      1.18720401485550      2.60759442529644
  C   -0.12542574238688      0.76589290166460      1.80719402396573
  C   -2.48339829256038      1.27831784840543      2.08193593219067
  C   -2.75388391323627      0.95581846311151      0.72293361537084
  C   -1.64250961212627      0.53198073161764     -0.07506023991052
  C   -0.35741120014724      0.45006430199817      0.49428358933294
  H   0.85882678662371      0.70455244893378      2.24913918013012
  H   0.46326445658042      0.12476258728249     -0.13779292756875
  C   -4.03732355906613      1.04180641029438      0.17447521060349
  C   -1.90329486233019      0.20835992422068     -1.43325536402948
  C   -4.32018153420863      0.72207006259778     -1.18156298667308
  C   -3.15486621068043      0.29601484240283     -1.95520997273193
  O   -5.45545750515217      0.78550630137227     -1.71106997114210
  H   -1.07172040216098     -0.11493873249243     -2.05384948598492
  H   -3.34188729863095      0.04613226279047     -2.99427946001686
  C   -0.93768030992296      1.52178642735132      4.01899071793487
  O   0.14603062621290      1.47103237466039      4.55108752192880
  O   -2.03503616999370      1.90860050538046      4.71048416866085
  C   -1.80378761807697      2.23771563924098      6.06776027274002
  H   -1.09484167290487      3.06198234146916      6.15096269393303
  H   -1.40210398937995      1.38174477188545      6.61084623487780
  H   -2.76939126076289      2.52591624528765      6.47579279249085
  H   -4.86367901349962      1.36535290000914      0.79816387501846
  H   -3.30337924001970      1.60249442566022      2.70992615358265
