20
Coordinates from ORCA-job 987optt
  C   1.28713598967304     -0.07437145137475      1.88544558115461
  C   1.18632689063495     -0.28780938201205      0.50366524204185
  C   0.20066556145022      0.40519340522587      2.60540743867285
  C   -1.02471236285574      0.71898004120587      1.93528848872692
  C   -1.11182331757399      0.48012164748507      0.53190731514161
  C   0.01953528009453     -0.03164489403377     -0.16212589089912
  H   2.04641382635519     -0.66866524620702     -0.03730737966015
  H   -0.06109664231665     -0.20441694057106     -1.22927830526494
  H   2.20628333844808     -0.30578769206899      2.41271275587685
  N   0.28295086551603      0.54588319141131      3.97514991616419
  C   -2.15777318599247      1.30815870170049      2.66052198035772
  C   -2.30900434147714      0.76562640992575     -0.16241140992605
  C   -3.32156990669100      1.55774133892636      1.88981323276719
  C   -3.38190868554003      1.28938981561145      0.52808272511572
  H   -4.16900080596294      1.98370372623566      2.41311902650303
  H   -2.36248423252588      0.57356855489385     -1.22721385983778
  H   -4.30164571110734      1.50699991246084     -0.00833532520000
  O   -2.10666315387168      1.59187529209934      3.89893522643960
  H   1.20558516113299      0.69834940107457      4.34486397755937
  H   -0.50348456739013      1.08061416801120      4.35863926426647
