22
Coordinates from ORCA-job 989optt
  C   1.51026676217836     -0.14017292400302      1.86799866682904
  C   1.32740280851202     -0.36426318238320      0.48094404981360
  C   0.44351017136174      0.38094596866013      2.58088465129880
  C   -0.78093651482369      0.68534962480436      1.98157442792335
  C   -0.95911604454140      0.45856121259285      0.58445768277336
  C   0.14207076153554     -0.07677286056588     -0.13610215702521
  H   2.15183281392939     -0.77287772189370     -0.09590415664708
  H   0.02465144930898     -0.25627286730472     -1.19992036239457
  C   2.80179585578529     -0.46652320705859      2.47255268447423
  H   0.51312321606149      0.57585056477028      3.64497543243713
  C   -1.86503083608185      1.23801315960939      2.81985131333423
  C   -2.19026433817893      0.76305896917204     -0.02746324378285
  C   -3.07462749070188      1.51599500311339      2.11810064068876
  C   -3.20955329857972      1.28177766778606      0.75612674947931
  H   -3.89750834422044      1.92302836855135      2.69343804361217
  H   -2.32526267768411      0.59121114732055     -1.08827248116895
  H   -4.15988784640900      1.51721874359152      0.28393294105030
  O   -1.70307545277813      1.43479986005698      4.04477027208566
  C   3.17710591021631     -0.31871872414493      3.74424236579028
  H   3.53185083623640     -0.87988821339069      1.77856144589054
  H   2.51199393204019      0.08571783127828      4.49685434282448
  H   4.17098832683346     -0.60318842056247      4.06406669071341
