24
Coordinates from ORCA-job 996optt
  C   2.15201757603266     -1.07482814757430      1.75713396999823
  C   2.98546977448133     -2.20713318232971      1.70592928004796
  C   2.24416405988243     -0.15504508853360      2.74983608874367
  C   3.89842752196537     -2.36354882335353      2.70029405385008
  C   4.06375653507283     -1.46155226876687      3.78478434913116
  C   3.19769324236337     -0.33025550202088      3.77658660847046
  F   1.23429528203383     -0.93837829448592      0.76328128859062
  H   1.60370053552484      0.71601295409631      2.78538580831000
  C   3.26840249961760      0.67124699418184      4.83380486892453
  C   5.00702495109774     -1.66783145024887      4.79721979759217
  C   5.09756167694304     -0.73760693944657      5.83799106692402
  C   4.25474695070362      0.41369960481282      5.87404537834676
  O   2.52958301240335      1.67298990844612      4.84144524750939
  C   4.36881340435930      1.32891532445312      6.93886571273120
  C   6.02939168758429     -0.89753981755989      6.90853530822439
  C   5.27224007443302      1.14539687476076      7.95270937492373
  C   6.11342317670151      0.00712517016920      7.92688500600368
  H   3.70553046624047      2.18510725714848      6.91807780338700
  H   5.34574976031428      1.85745786762492      8.76523059666697
  H   6.67705345102564     -1.76775467516352      6.89634041647123
  H   6.83139192955108     -0.14780941462417      8.72487767650995
  H   2.90261017376345     -2.93002951887637      0.90643728196537
  F   4.70273878953761     -3.45093168817966      2.66284336214728
  H   5.65030346836725     -2.53617714452969      4.77779965453007
