20
Coordinates from ORCA-job 108optt
  C   -3.04225396980609      0.56771082291408     -0.00082963413129
  C   -2.86768663081561     -0.80737634776538     -0.00660428636318
  C   -1.88549255448090      1.35716108553198      0.00150713674144
  C   -0.61084245731733      0.79493967401446     -0.00179378145246
  C   -0.43627534487693     -0.58014761954177     -0.00756895625299
  C   -1.59303685475552     -1.36959757169998     -0.00990762354032
  H   0.25287390895946      1.44711704998456      0.00017645443546
  C   0.92709272108156     -1.20546388539857     -0.01119345753283
  C   -4.40562252322436      1.19302652817218      0.00278532818995
  C   -2.01847297433510      2.78733133568010      0.00753408248294
  H   -3.73140296844093     -1.45955380975523     -0.00857086991585
  C   -1.46005565494583     -2.79976811685089     -0.01593993258781
  N   -2.14166301584582      3.92830540312832      0.01233012427086
  N   -1.33686143155227     -3.94074170660480     -0.02076852842960
  H   -5.18203883446632      0.43113590011708      0.00025494849775
  H   -4.54012977480776      1.83179885846687     -0.87158692452257
  H   -4.53875731255280      1.82456427091337      0.88260698908448
  H   1.70350979195724     -0.44357456298136     -0.00851092988285
  H   1.06027541336621     -1.83687213274829     -0.89110150298395
  H   1.06155046685913     -1.84436517557673      0.86309136389283
