18
Coordinates from ORCA-job 109optt
  C   -3.30808409947187      0.76497157832148     -0.06777545810562
  C   -3.11697740914557     -0.61528424376047     -0.04046734627119
  C   -2.16066701986961      1.57564789477538     -0.05055116364783
  C   -0.88319166494769      1.01742794738244      0.02193412318068
  C   -0.71656833543000     -0.35163595019880      0.07059727170412
  C   -1.84486695018921     -1.16918425935643      0.03453209572866
  H   -0.02403406728473      1.67385999394967      0.02960708870928
  H   0.26997525970574     -0.78947054012871      0.12530671250734
  C   -4.69108518147184      1.26485805113452     -0.12816481921113
  C   -2.23625079979639      3.00680707624563     -0.14424706953828
  H   -3.97879846174115     -1.26930465431692     -0.06869718998188
  C   -1.69448964964942     -2.59736797830712      0.07108172852687
  N   -2.24085211468831      4.15209596372627     -0.21461391619242
  N   -1.57344351074083     -3.73763017840085      0.09861535991685
  C   -5.14310695983547      2.42191416511200      0.33946237133439
  H   -5.39646577460249      0.56784801728980     -0.56891360987384
  H   -4.50987874881175      3.15245445121332      0.82301991215122
  H   -6.19370451202935      2.66531266531879      0.25516390906277
