22
Coordinates from ORCA-job 110optt
  C   -3.23721027106358      0.52398323073279     -0.07119456348124
  C   -3.05096707544878     -0.86205500753874      0.08325329886027
  C   -2.11004038758125      1.35268310046301     -0.15070714960233
  C   -0.81761726605551      0.83499623593528     -0.06097616938506
  C   -0.63569284915944     -0.51986359840763      0.10503111580503
  C   -1.74547801779470     -1.36217231462776      0.17874138459574
  H   0.02921378634987      1.50339726924430     -0.12820447792244
  H   0.35718904956342     -0.93958347558057      0.18526292185762
  C   -4.60832415501734      1.05535167363441     -0.19308219281347
  C   -2.23312284113475      2.76866607197049     -0.36721848717484
  C   -4.23365672105506     -1.73822283502815      0.18761550209639
  C   -1.49117447439603     -2.76042723360073      0.39578643784987
  N   -2.27117954872205      3.90230596049192     -0.53976578702413
  N   -1.22931895940158     -3.86396124401992      0.56892594742057
  C   -5.05443575366072      2.15364074356013      0.40198031141873
  H   -5.28311925208460      0.46839961112170     -0.80673160457673
  H   -4.42916494191478      2.75659690588806      1.04801625531022
  H   -6.07535331987716      2.48175418584185      0.26028643264693
  C   -4.36524379292082     -2.91359262783614     -0.41280746366215
  H   -5.04770084356429     -1.35303548205396      0.79212054232592
  H   -3.59440062515188     -3.32718586937478     -1.05047016072810
  H   -5.26453173990889     -3.50085530081553     -0.28456209381677
