16
Coordinates from ORCA-job 118optt
  C   -3.01030904043612      0.45923111749512     -0.00675446719244
  C   -2.83503874016359     -0.92865037478288     -0.04192748756413
  C   -1.90171922674515      1.29592453118353      0.03653146593917
  C   -0.60532042570187      0.76798606859599      0.04518756471790
  C   -0.43232911560318     -0.59517803747104      0.01066869057720
  C   -1.54474230591511     -1.44608234558057     -0.03262820255240
  H   0.24103018188677      1.43808019507974      0.07860189017158
  H   0.55744417361068     -1.02804376751992      0.01651467335761
  O   -4.29201632205276      0.88502193810998     -0.01834753630584
  C   -2.15667639456229      2.70349897670057      0.07212275816414
  O   -3.89339620038781     -1.74965570685863     -0.08457546296217
  C   -1.36158919053390     -2.86682365285621     -0.06809928956852
  N   -2.46495723259303      3.80955861381956      0.09883109483563
  N   -1.18541792566616     -3.99977437309612     -0.09573791252886
  H   -4.34499737862501      1.85046960110602      0.00823837118250
  H   -4.70649485651138     -1.22685278392515     -0.08482615027134
