16
Coordinates from ORCA-job 119optt
  C   -3.04691300848315      0.51858877554528     -0.00114883014022
  C   -2.89715400271623     -0.85740895702460     -0.00694429117000
  C   -1.91653092870621      1.34491473480740      0.00136578834026
  C   -0.63156936468497      0.78609178635184     -0.00182268097984
  C   -0.47522866529231     -0.59471229808437     -0.00761304673748
  C   -1.60922841450947     -1.39288738709013     -0.01009073258167
  O   0.47308561228095      1.54406793801027      0.00051926365722
  H   0.51675083185256     -1.02104658073135     -0.01009362975673
  O   -4.24243641533122      1.13466532949646      0.00232672906348
  C   -2.03018443784215      2.76674932403767      0.00734617170533
  H   -3.76022673468288     -1.50914934315574     -0.00894988240824
  C   -1.45854601919382     -2.82265367648531     -0.01620284734049
  N   -1.99363747801484      3.91482625489438      0.01207999206641
  N   -1.34731334914999     -3.96399990068393     -0.02107423292062
  H   -4.95853974059642      0.49053995511821      0.00036991813893
  H   0.25357211507017      2.48660404499387      0.00454231106365
