16
Coordinates from ORCA-job 120optt
  C   -3.03922724930819      0.56126256351241     -0.00098924168291
  C   -2.87676735837353     -0.81392135959336     -0.00676588126739
  C   -1.90187780747293      1.37453179147428      0.00152000066502
  C   -0.62793808453147      0.81294879529982     -0.00169491316171
  C   -0.46547785137679     -0.56223519874169     -0.00747173446442
  C   -1.60282754502991     -1.37550414025483     -0.00998207580765
  H   0.23545554172393      1.46621649868275      0.00033709625318
  O   0.73915559457523     -1.17206216201474     -0.01084956931092
  O   -4.24386070045885      1.17108958247664      0.00238882572523
  C   -2.04621045980490      2.80006280852030      0.00754112516436
  H   -3.74016097605374     -1.46718897381547     -0.00879769176548
  C   -1.45849476806233     -2.80103537400235     -0.01600790065058
  N   -2.13049260017644      3.94388423321555      0.01232859221783
  N   -1.37421065539691     -3.94485648575517     -0.02083383904030
  H   -4.95565616499834      0.52307579590493      0.00033047066486
  H   1.45095108474517     -0.52404837490905     -0.00879326353912
