18
Coordinates from ORCA-job 121optt
  C   -2.90682758986511      0.54580923441173     -0.00114709114864
  C   -2.75489320495425     -0.83523667670028     -0.00699550692677
  C   -1.76129895682616      1.36063832224842      0.00126953244111
  C   -0.49231429895532      0.79410001528640     -0.00196695980569
  C   -0.33667863336226     -0.58086937912540     -0.00768546382648
  C   -1.47262343889245     -1.38322435170393     -0.01016378178701
  H   0.37077311646132      1.44525751555074      0.00001097066707
  H   0.64557050238534     -1.03009062762459     -0.01022906907122
  O   -4.08606540110280      1.17982956856837      0.00243631137314
  C   -1.91243979663429      2.78542850281785      0.00720125752345
  H   -3.61098171297717     -1.49235447719976     -0.00906710656121
  C   -1.33261098758326     -2.81344957918598     -0.01619356762100
  N   -2.00504237126809      3.92876037635767      0.01192881012731
  N   -1.22470403421409     -3.95542887325329     -0.02100807499285
  C   -5.26872925187448      0.40035319101610      0.00064310124523
  H   -6.09117358503422      1.10853346534078      0.00462524680416
  H   -5.32087567010246     -0.22865104818139      0.89198168661008
  H   -5.32312468520023     -0.22115517862344     -0.89581029505066
