16
Coordinates from ORCA-job 125optt
  C   -2.98689275957403      0.55899628105307     -0.03814975295553
  C   -2.83095957083036     -0.83102452613790     -0.03445668807883
  C   -1.82122390761311      1.34967883956436     -0.01666240934897
  C   -0.55419633120119      0.76849203494802     -0.00011301002802
  C   -0.41075747811118     -0.60233563015245      0.00055419051309
  C   -1.56418152396722     -1.39199225251980     -0.01495808605756
  H   0.31448803497496      1.41226147138239      0.01504950352011
  H   0.56478713523334     -1.06475571447986      0.01461591694379
  N   -4.22317556978828      1.13129406688534     -0.09785261327140
  C   -1.97691809385318      2.77084259325720     -0.00432100575139
  H   -3.70326728108231     -1.47086079352046     -0.05132263164105
  C   -1.44015828048411     -2.82421383179875     -0.00968432952074
  N   -2.17637960901915      3.90202032831382      0.01444300856768
  N   -1.34122687182320     -3.96694970447503     -0.00354836780366
  H   -5.02971302057309      0.56554240242413      0.09802933642933
  H   -4.31562487228786      2.11943443525591      0.07459693848317
