18
Coordinates from ORCA-job 127optt
  C   -3.03342396168404      0.52101969038161     -0.03678902847563
  C   -2.89138346224952     -0.86701055291648     -0.03989258692858
  C   -1.87372105549720      1.31841795776744      0.00347662320609
  C   -0.58501672944655      0.75228358469450      0.03648740965555
  C   -0.46428209943270     -0.63770289434010      0.02709027394949
  C   -1.61517792692387     -1.41393534006287     -0.00929544826935
  N   0.51619581833930      1.55489420256560      0.11933800585070
  H   0.50990045022985     -1.10434309612363      0.05632369644582
  N   -4.26551807809214      1.10371555137880     -0.11270052500648
  C   -2.00733630761051      2.73544636648638      0.01049218273624
  H   -3.76068112730300     -1.50791293113293     -0.07329962400023
  C   -1.48020952777851     -2.84644162974037     -0.01451221534011
  N   -2.11496546229255      3.88068173489726      0.01535941810487
  N   -1.37283282844769     -3.98841277164067     -0.01862287177182
  H   -5.07403840090291      0.53738673580588      0.07366947413652
  H   -4.35713422550645      2.08707164243708      0.08414858616169
  H   0.42136226260270      2.53941644622774     -0.07020605474120
  H   1.41600266199585      1.15195530331475     -0.07374731571360
