22
Coordinates from ORCA-job 138optt
  C   -2.99927211566568      0.42368879655479     -0.58412637570509
  C   -2.86281366717499     -0.97606220554189     -0.51197486861313
  C   -1.98333082341936      1.24064808102200     -0.08223473840277
  C   -0.81636184560561      0.70663229377083      0.46497349459951
  C   -0.64778787230293     -0.65895062717804      0.46641130596560
  C   -1.64721079518510     -1.49638234621075     -0.03491914124989
  H   -0.05311687269069      1.36502849946429      0.85409886991688
  H   0.26694139028142     -1.10161216065536      0.83616316141588
  S   -4.41959188487003      1.16108056434407     -1.34758505019724
  C   -2.13478941967729      2.67083447194401     -0.08841613109009
  S   -4.22763100907194     -1.94487983992204     -1.05227409311452
  C   -1.32567951267397     -2.89182642133436     -0.11422758109085
  N   -2.21391760411915      3.81428650578308     -0.04255029318568
  N   -1.00248070242056     -3.99022922947627     -0.19230235430403
  C   -5.44193919353259      1.38358093274588      0.12917812109168
  H   -6.37582446023733      1.82708338962968     -0.21041304530166
  H   -4.95463675714592      2.06002501523135      0.82837792288287
  H   -5.64332765200260      0.41885014892301      0.59088774308380
  C   -4.16748300375227     -3.43498772280628     -0.02742371408042
  H   -3.54182355217675     -4.21284398327528     -0.45093637909622
  H   -5.20170416520165     -3.77226757776113      0.01217012273105
  H   -3.83732848135491     -3.19215658525160      0.98067302374433
