20
Coordinates from ORCA-job 144optt
  C   -3.03438803142887      0.59715860388026     -0.08633265546737
  C   -2.91676912771936     -0.78094434246444     -0.13713701185572
  C   -1.87605390020808      1.37819368947579     -0.00225425441590
  C   -0.63253987463507      0.76162071930884      0.04719133229060
  C   -0.51208267357427     -0.62048757778268     -0.00623918217298
  C   -1.66690729024479     -1.40311884810608     -0.10389183048205
  H   0.26863406421409      1.35420403700696      0.12830638777587
  C   0.88994875689623     -1.15345334425209      0.04885738588823
  C   -4.38490260360343      1.25438751053730     -0.18923909414727
  C   -1.92162219705300      2.81250016798848      0.07392247444401
  H   -3.79843043561086     -1.40187154058321     -0.23678245967572
  C   -1.67946623707699     -2.83880619516063     -0.17301070801227
  N   -1.87483123513641      3.95379230343710      0.16795622448931
  N   -1.80817025069969     -3.97657788100438     -0.22776516770857
  O   -4.56125999418139      2.25021349024624     -0.81456787536085
  O   -5.39400165059938      0.63336433377365      0.44492312167417
  H   -5.07821224872717     -0.07215916723083      1.02129580476074
  O   0.94989942867363     -2.48200755553990     -0.01995855789131
  H   1.88144832006507     -2.74560147580724      0.02121550342433
  O   1.84936718064978     -0.44380692772316      0.14525056244271
