14
Coordinates from ORCA-job 145optt
  C   -3.05446210794807      0.64733221414580     -0.02887926159514
  C   -2.96207492254277     -0.73463148997804     -0.06845877412518
  C   -1.89784593638353      1.42062713746414     -0.00480077604779
  C   -0.64292139664131      0.79713926729304     -0.02104896773779
  C   -0.56101384183626     -0.59146475182550     -0.06087285850846
  C   -1.71863696795734     -1.35241249458057     -0.08445758322942
  C   0.56202089540958      1.57556134964363      0.00315030758826
  C   -2.00473713649386      2.85077922117911      0.03691809702145
  H   -3.86446239575346     -1.33048425113674     -0.08679098651602
  N   -2.11601036168352      3.99159837470087      0.07138548920495
  H   -4.01689386877556      1.13972341067156     -0.01579695322492
  H   0.41287468386934     -1.06081045537482     -0.07309551655347
  H   -1.64889643196755     -2.43123571538221     -0.11546894504954
  N   1.53879978870432      2.17612818317975      0.02055672877309
