17
Coordinates from ORCA-job 147optt
  C   -2.96312720343301      0.70429716109896     -0.02896695953696
  C   -2.89134882264385     -0.68195583305231     -0.06887497921009
  C   -1.80806963483944      1.48097474391624     -0.00370874818889
  C   -0.55177113392199      0.86569234465800     -0.01878623314140
  C   -0.47541685125848     -0.52458558844224     -0.05914387975595
  C   -1.63152838476958     -1.28172349575571     -0.08366294669255
  C   0.65205259487554      1.64378594929245      0.00712833599272
  C   -1.92449204701575      2.91050606674194      0.03845537116778
  C   -4.13459699283698     -1.52341439212582     -0.09535431293705
  N   -2.04472577721353      4.05049778065587      0.07213965907773
  H   -3.92504059470162      1.20012167256828     -0.01637689422611
  H   0.49663265233012     -0.99803523840139     -0.07091973691281
  H   -1.55869064478071     -2.36212540119102     -0.11497815490824
  N   1.62910040680642      2.24423205190788      0.02708669655885
  H   -5.03126807130480     -0.90725853672844     -0.07794827407057
  H   -4.16221517907174     -2.19388281634738      0.76471647208550
  H   -4.16046431622059     -2.14175646879530     -0.99369541530195
