18
Coordinates from ORCA-job 152optt
  C   -3.53342380835863      1.06994878594331     -0.09757015746078
  C   -3.57038913687008     -0.32579820341880     -0.08922923466296
  C   -2.27799744178661      1.69133319453119     -0.04444374588305
  C   -1.10414945566915      0.92767793718665      0.03653175349937
  C   -1.17369966286645     -0.45874670478346      0.05954869995166
  C   -2.41320749923847     -1.07855051130982     -0.00576074725061
  C   0.17917707803837      1.56774558174063      0.09302325299936
  C   -2.18982891871285      3.12326483796439     -0.06336835291804
  H   -4.52638447375223     -0.82529104082587     -0.16976455732456
  N   -2.14200238085341      4.26927279855908     -0.08048678810896
  C   -4.75802407040459      1.88183594548487     -0.17117650192765
  H   -0.26150638002478     -1.03540917471085      0.11930792285393
  H   -2.47227052943503     -2.15856958801970     -0.00348110585696
  N   1.21732763421055      2.05319076629466      0.13354100259899
  C   -5.96713660204400      1.45921744243240      0.17685507648755
  H   -4.63125818837991      2.90286006339523     -0.51368348986250
  H   -6.14593091701974      0.46492614279336      0.56706752508516
  H   -6.82375524683296      2.11414172674272      0.09803944778006
