18
Coordinates from ORCA-job 153optt
  C   -3.04450125478849      0.47787391537905      0.03351310925797
  C   -2.86932808289374     -0.90264007592114     -0.06687586781093
  C   -1.95303118467975      1.33270769089546      0.05483972267074
  C   -0.65013866357843      0.81678515670063     -0.02249323756566
  C   -0.46976139689862     -0.55796082067367     -0.11869114111903
  C   -1.56768384318672     -1.40054706813906     -0.13879908306206
  C   0.48918495699646      1.68571749071359     -0.00202236034725
  C   -2.17347572917837      2.74723145290441      0.16015160553631
  C   -3.99841317222886     -1.84415279444941     -0.09732383542946
  N   -2.37565792618276      3.87273412175504      0.24570505431062
  H   -4.03456272650333      0.90644975623109      0.10102881657961
  H   0.53371618854965     -0.95616416219140     -0.17666026374987
  H   -1.41515573983260     -2.46995794554731     -0.21379168661007
  N   1.41553028366902      2.36199521928682      0.01146235291178
  C   -5.28711538233242     -1.52608318338462     -0.11214624834406
  H   -3.71744010638805     -2.89209718921211     -0.11483828254501
  H   -5.63889075371161     -0.50234420810883     -0.10484336617018
  H   -6.04439546683137     -2.29734735623853     -0.13647528851344
