32
Coordinates from ORCA-job 162optt
  C   -3.28589794606795      0.73100626604878     -0.29664896257891
  C   -3.30084273028825     -0.65991647572212     -0.24324207852764
  C   -2.08745692093108      1.38022515554785      0.02040513267026
  C   -0.95147489794969      0.63989695688177      0.37702481739281
  C   -1.00451500894969     -0.74536748619988      0.42262209961239
  C   -2.18554201069401     -1.41194966231727      0.11221874973206
  C   0.28072156080327      1.30401573571247      0.69616457169234
  C   -2.02100652016815      2.81269072367493     -0.02058129011678
  H   -4.21536836742068     -1.18395490010084     -0.49121439944062
  N   -1.99839852048444      3.95940862727076     -0.05852262902776
  C   -4.51829334240551      1.54212200371869     -0.63609030021102
  H   -0.11365899947309     -1.29366228717965      0.70012943950382
  C   -2.24915528551526     -2.92173226063590      0.16124525931004
  N   1.27650783938702      1.80979971010254      0.95693948844295
  C   -5.15631202985177      2.07129520042696      0.65441655438418
  H   -5.48540875760934      1.23772464446343      1.27854443966904
  H   -6.02479665084316      2.68712106259004      0.41867573579057
  H   -4.45560947309261      2.67769510721470      1.22803763028307
  C   -5.54448627204119      0.77644994991720     -1.46447960939581
  H   -4.18453721733832      2.40372322404329     -1.22046306609829
  H   -6.32834855131313      1.45891538902602     -1.79238358735753
  H   -6.02466115281960     -0.00961081228871     -0.87843966641330
  H   -5.09525675705162      0.32289141510822     -2.34884691494175
  C   -1.98138797548170     -3.43828223288843      1.57640812579950
  H   -0.96690851860568     -3.18966236637004      1.89394900005112
  H   -2.08410214745885     -4.52354217836525      1.60811652203075
  H   -2.67626023538486     -3.00375302660266      2.29532715354650
  C   -1.27752690466301     -3.54904763753617     -0.84024652409476
  H   -3.26450710590907     -3.21101073969387     -0.12103505280901
  H   -1.37295426779037     -4.63538801544952     -0.82905694744746
  H   -0.24510956288210     -3.30229997890408     -0.58525480386795
  H   -1.46901526970583     -3.19546111149321     -1.85351888758279
