32
Coordinates from ORCA-job 163optt
  C   -3.05306895201874      0.46888448063952     -0.15311498771418
  C   -2.94002624320542     -0.75616211786031      0.49398549786724
  C   -1.86796647915218      1.04450101797233     -0.62250406804566
  C   -0.62296479875889      0.41555610208231     -0.45194548720806
  C   -0.52370687158064     -0.81723280553590      0.20287594659975
  C   -1.71195747749579     -1.37438070104667      0.66579598817048
  C   0.53985076395421      1.07864515334844     -0.97365737357096
  C   -1.92952451209085      2.31044966019404     -1.29871833045238
  H   -3.82920262796347     -1.24445465036337      0.86919403604767
  N   -2.01455444221355      3.32327007632155     -1.83111268621375
  C   -4.37417685161283      1.18873461603591     -0.31782041371117
  C   0.78290916296301     -1.55331279339146      0.41990808911567
  H   -1.66946052979770     -2.32948747439439      1.17522233491128
  N   1.46284935947372      1.61535568444517     -1.39367501556277
  C   -4.50398229493616      2.28450451586206      0.74704744997763
  H   -4.50582469776179      1.83958227649160      1.74440638502571
  H   -5.43876568647250      2.82986699261112      0.61312655698373
  H   -3.68290638065280      2.99881207976465      0.68851923947742
  C   -5.57977838783551      0.25566768428581     -0.27436502764344
  H   -4.35648747429639      1.67537820610183     -1.29667296259387
  H   -6.47949081837781      0.81114634714027     -0.53839072803466
  H   -5.73343251217336     -0.15158632269137      0.72692103408651
  H   -5.47460240998643     -0.57525196783078     -0.97306046914214
  C   1.75121541894948     -0.77351543266313      1.31398552465564
  H   2.10630145762835      0.13327407018273      0.82541810838443
  H   2.62085150829075     -1.39270893625572      1.53719066857085
  H   1.27799279667118     -0.49601026378395      2.25641433753633
  C   1.44310932424040     -1.97124976438021     -0.89717468894972
  H   0.51510516531758     -2.46891641363641      0.95304731081283
  H   1.78787201881062     -1.10766064226324     -1.46497380512159
  H   0.75162126477828     -2.54053028950599     -1.51919671154953
  H   2.31035220730528     -2.59862838787644     -0.68794575270927
