34
Coordinates from ORCA-job 166optt
  C   -3.59739824100973      0.78790730989335     -0.04108744073023
  C   -3.47908806610768     -0.56959147355267     -0.38792377077083
  C   -2.42779069702038      1.52287284350151      0.19717164292961
  C   -1.16368832114973      0.92544678391192      0.09447194060057
  C   -1.06273528341417     -0.41878384325956     -0.23790528665986
  C   -2.21274790832563     -1.14824719985035     -0.47194493505688
  C   0.03041561762747      1.68179446690105      0.33835764568936
  C   -2.50333947508429      2.90187620769495      0.59303062597613
  C   -4.65829639381705     -1.42217961376738     -0.68848435026514
  N   -2.54133216311794      4.00238502739296      0.91368351425852
  C   -4.92330207563006      1.44116288954096      0.11490700849504
  H   -0.08656384298815     -0.87624107402295     -0.31750795163084
  H   -2.13541593237807     -2.19028750176862     -0.75442429352872
  N   1.00418378179681      2.25817050647687      0.52573828916679
  C   -5.24540414439764      2.57856932126522     -0.62039110990854
  C   -5.85975189865809      0.91504473785452      1.00286605026251
  C   -6.48969394287787      3.17540586016902     -0.47820416074158
  C   -7.41758519363953      2.64647293046208      0.40745222585942
  C   -7.09826468297773      1.51787337237278      1.15167327261108
  H   -7.81568586149566      1.10549581199346      1.84875237326027
  H   -5.61397204783889      0.02870566930068      1.57466701300215
  H   -6.73050441728158      4.05706136363589     -1.05710012753921
  H   -8.38620907805668      3.11504957584342      0.52168752505404
  H   -4.52185133494083      2.99589702889318     -1.30998860356566
  C   -4.78990958180036     -2.66148622613424     -0.06515063231412
  C   -5.62279475739654     -1.02466439221401     -1.61409590127898
  C   -6.69577807302683     -1.85106642308464     -1.90672705234280
  C   -5.87162444590584     -3.48337709257702     -0.34943167322252
  C   -6.82622827994403     -3.08010475397893     -1.27183644108124
  H   -4.04981060873579     -2.97322018253517      0.66226638740675
  H   -5.96825835788206     -4.43745112822647      0.15185996394726
  H   -7.66906301057738     -3.72037583258525     -1.49639894851080
  H   -5.52906120354923     -0.06485480412535     -2.10605289309523
  H   -7.43355007839871     -1.53399016542116     -2.63193990627630
