14
Coordinates from ORCA-job 174optt
  C   -3.18712946055903      2.04479245184336      0.51505760327649
  C   -4.01508023121306      1.02615891758485      0.07910474731358
  C   -1.80650453427007      1.91070413952127      0.52998572292198
  C   -1.23951875091951      0.70350870934876      0.08857453154852
  C   -2.08153299197144     -0.30960889063476     -0.34622070125119
  C   -3.45681565921609     -0.16234110758823     -0.35571766436343
  C   0.17758434717641      0.50838995837613      0.08184955161008
  C   -0.98959917538853      2.99108815722177      0.99007246287471
  N   -0.33916963135080      3.85902393084820      1.36068961428798
  F   -1.54778133187087     -1.45073249920852     -0.76372379983254
  N   1.31282281856698      0.35049640523198      0.07461615319376
  F   -3.72276597939613      3.18528518684541      0.93180086222335
  H   -5.08514384852066      1.17923012052959      0.08659430307981
  H   -4.06972557106721     -0.98169547991980     -0.70440338688311
