14
Coordinates from ORCA-job 176optt
  C   -3.18857919279321      2.01672603277720      0.50622123742610
  C   -3.99586909986374      0.97949287627743      0.06197060523780
  C   -1.80038031598885      1.87832749830449      0.51831431030408
  C   -1.23528851228919      0.67248738202602      0.07577804412104
  C   -2.04596004765319     -0.36485722607956     -0.36760196649705
  C   -3.42294353130975     -0.20450625023166     -0.37225312600053
  C   0.18930633484155      0.50031126151028      0.07830363975696
  C   -0.96230039443823      2.94622886269708      0.97404154837607
  N   -0.28743248761078      3.79817029028572      1.33901259585676
  H   -1.59021087990563     -1.28532522011159     -0.70347938832311
  N   1.32391762334007      0.33542359490480      0.06859101795912
  Cl  -3.90892570283942      3.47896592458919      1.04495597192600
  H   -5.06862406513378      1.11248901166992      0.06183695947042
  H   -4.05705972835584     -1.00963403861934     -0.71743144961368
