14
Coordinates from ORCA-job 179optt
  C   -3.15833736830222      2.05373031083178      0.51990618666394
  C   -3.97223929414146      1.02198367315885      0.07960721150191
  C   -1.76948053855606      1.91422760048806      0.53185543885095
  C   -1.21105670574956      0.70628503266169      0.08855398758077
  C   -2.01812056456379     -0.33261764973411     -0.35334095204325
  C   -3.39385093213510     -0.16111770126429     -0.35146856300655
  C   0.21282279740327      0.52775732499940      0.08810579550596
  C   -0.92916584741874      2.97876213097869      0.98752413277625
  N   -0.25227577700063      3.82885880427463      1.35319553473395
  H   -1.57811253080948     -1.25924218549443     -0.69177548758912
  N   1.34687639771713      0.36068448362436      0.07732318649474
  Cl  -3.87742435459104      3.51488820482456      1.05652138049224
  H   -5.04584404809455      1.14382523565686      0.07555253498872
  Cl  -4.40412123375774     -1.44373526500605     -0.89326038695053
