14
Coordinates from ORCA-job 181optt
  C   -3.12037563027880      2.09352918777886      0.53052660595437
  C   -3.94060265988258      1.06519901935628      0.09166818781191
  C   -1.74126395540326      1.93560441754177      0.54120875975528
  C   -1.17675816217437      0.73013222392611      0.10429438909978
  C   -2.00090885956801     -0.29699034390989     -0.33452682678767
  C   -3.37816109082092     -0.13646665734230     -0.34214930594132
  C   0.24411897442829      0.53917712394283      0.10397699134222
  C   -0.91389372480189      3.01192146772581      1.00203619931554
  N   -0.26949349128012      3.88366413199674      1.37540551948287
  H   -1.57070771807832     -1.22910006247979     -0.67221135667564
  N   1.37767091644754      0.36713938745744      0.09424271475126
  H   -3.56114499173265      3.02152803580580      0.86601027327360
  Cl  -5.63786966651085      1.29877970957664      0.09449016460531
  Cl  -4.36095994034402     -1.42982764137631     -0.88669231598751
