18
Coordinates from ORCA-job 189optt
  C   -4.04799093843480      2.18435198932947      0.37326537373068
  C   -4.80002574945734      1.13826210371858     -0.15108589545584
  C   -2.66719062464955      2.04288392645942      0.49322318939938
  C   -2.03092483803379      0.86588092490676      0.09395759917426
  C   -2.80210241581288     -0.17465631996618     -0.43044268481702
  C   -4.16608271317528     -0.04213359260685     -0.55201776165381
  C   -0.61248906519498      0.71207280929839      0.21427140765643
  C   -1.91130929426457      3.13536440566461      1.03732215548668
  N   -1.33390619538273      4.02433077234774      1.47480204469325
  H   -2.31184918748057     -1.08717996091755     -0.74017987495019
  N   0.52214578332338      0.56493750258201      0.29890960839708
  H   -4.50505087691159      3.10831456646317      0.69262765566957
  O   -6.13360418732247      1.17519575787048     -0.30751834616416
  H   -4.77303602960357     -0.84048295189790     -0.95640682350732
  C   -6.82335587900205      2.34663322805422      0.08888509553386
  H   -6.69099601331183      2.53420386455247      1.15682682931517
  H   -7.87237040010107      2.16209951029554     -0.12080915052240
  H   -6.48258137518430      3.21244146384558     -0.48331042198564
