16
Coordinates from ORCA-job 1optt
  C   -2.92506286340724      0.47009161033466     -0.00000069057758
  C   -2.72674389789441     -0.90535451010431     -0.00000017723177
  C   -1.78765898730262      1.28916063793435     -0.00000050867047
  C   -0.50244016706737      0.75066216698727     -0.00000018410136
  C   -0.33372977448321     -0.62343926279264      0.00000019629991
  C   -1.44930561367640     -1.44931724341026      0.00000013787370
  H   0.35078244103694      1.41540597838463     -0.00000004212901
  H   0.66152076519617     -1.04637922889189      0.00000043498166
  C   -4.30038176776730      1.07021198211646     -0.00000175193569
  C   -1.95431435614132      2.71561947769411     -0.00000064268030
  H   -3.58989268047849     -1.55928894249317     -0.00000041294691
  H   -1.32538340643924     -2.52448920540893      0.00000049562395
  N   -2.10465995694471      3.85375867583026     -0.00000062229087
  H   -5.06231482248295      0.29348333557485     -0.00000187031631
  H   -4.44720188320606      1.70342180348714     -0.87661985761660
  H   -4.44720302894173      1.70342272475749      0.87661549571765
