20
Coordinates from ORCA-job 201optt
  C   -3.56580834462154      1.70415742956624      0.30525515287299
  C   -4.24839390407944      0.49616664785666      0.26832058162900
  C   -2.18118097719032      1.72344827805564      0.19270003228117
  C   -1.47496466826572      0.51782753147145      0.07553135020925
  C   -2.16431377314839     -0.69059638602668      0.07154673586867
  C   -3.54624621195292     -0.69915073297531      0.15748024417304
  C   -0.04481782648872      0.51443771135539     -0.03597493399291
  C   -1.48666366852415      2.97890209863015      0.20507793904127
  N   -0.94801333151878      3.99093996501872      0.21154561393895
  H   -1.60861967093705     -1.61509085263132      0.00007672048997
  N   1.09761908487123      0.48605685150421     -0.12932037601111
  H   -4.11481549068196      2.62777469250581      0.43000046487912
  C   -5.73896076873489      0.53219418285064      0.46774244129766
  H   -4.07543494708096     -1.64271223183736      0.16245452721284
  O   -6.23247450309895      1.26014067164228      1.27527701174332
  O   -6.50362812746272     -0.30450216414757     -0.24883794951624
  C   -6.08863740366450     -0.82993490735602     -1.50782693424274
  H   -5.30481283334206     -0.22451645412244     -1.96022219082587
  H   -6.96791697763668     -0.81739912047791     -2.14667553926221
  H   -5.74279565644135     -1.85658321088254     -1.39307089178617
