26
Coordinates from ORCA-job 202optt
  C   -3.27978613228176      1.25875568812855      0.29343610535884
  C   -3.40866260787204     -0.05176628403130     -0.15775533019418
  C   -2.01065965836612      1.81658586114949      0.42853216835134
  C   -0.87489462186794      1.05785472742286      0.11432992955018
  C   -1.01478308390069     -0.25284022225962     -0.32637754785434
  C   -2.27771591846348     -0.80244411356399     -0.45794378811451
  C   0.43721401500293      1.62309941096399      0.24532985853539
  C   -1.87320883008526      3.16667131929248      0.89651381452139
  N   -1.78333100870068      4.24770329423651      1.26743743084545
  H   -0.13170426855279     -0.82888572935398     -0.56399698957674
  N   1.49630387832867      2.05212929196581      0.33933144122921
  C   -4.47180217410038      2.07432498169641      0.72902347739374
  C   -4.78204679060563     -0.61372799458770     -0.35632450527400
  H   -2.39589781825454     -1.81956867510431     -0.80295996325806
  O   -4.98116924030827      1.94426308331442      1.80261300977296
  O   -4.80258438274318      2.97021959795864     -0.18751077611361
  C   -5.91330026946105      3.80435801670723      0.16065850529685
  H   -5.68114528558255      4.37257731557891      1.05964299590182
  H   -6.79252317111183      3.18621500843710      0.33414734992635
  H   -6.06245726733541      4.46471010194531     -0.68685789842700
  O   -4.77111577172658     -1.93833066534688     -0.49240386679607
  O   -5.77342661893519      0.05976173514549     -0.40366968612105
  C   -6.05379532415770     -2.53776382218504     -0.69827010436433
  H   -6.50805086460127     -2.14464689292731     -1.60601567296429
  H   -6.70333912864697     -2.32550168981856      0.14884767790650
  H   -5.87066765567013     -3.60342334476450     -0.78727763553185
