16
Coordinates from ORCA-job 206optt
  C   -3.20700634846500      1.87809841335654      0.49194115330289
  C   -3.95665249044747      0.79209543302773      0.01582201159499
  C   -1.80582850061194      1.76153378814802      0.49694581890780
  C   -1.19105416834110      0.58390929133416      0.04546441222720
  C   -1.94951276981041     -0.47748539561210     -0.41840246589996
  C   -3.33653906345254     -0.35553975672812     -0.42789165615303
  C   0.24042899312525      0.47777035564050      0.05932062573759
  C   -1.04820824678993      2.87725742814110      0.96586974446249
  N   -0.53227819923572      3.82948034200703      1.34847778588953
  H   -1.46145164842390     -1.37667812064797     -0.76359191091129
  N   1.38264981615339      0.37517591038439      0.06278708744270
  N   -3.81478389571714      3.00120585268722      0.96937350979122
  H   -5.03672706908165      0.86712092705336      0.00654603724021
  H   -3.93995953936938     -1.17725418842877     -0.79000670427225
  H   -4.78604219589983      3.15057321279848      0.76205114753227
  H   -3.26046467363263      3.82355650683843      1.14692340310763
