16
Coordinates from ORCA-job 207optt
  C   -3.16847101680289      1.90532393579371      0.50592722417093
  C   -3.95218668737809      0.83717563619289      0.06015147516807
  C   -1.78608750437601      1.80977841066312      0.50763775228336
  C   -1.14851929271509      0.64271122958150      0.06572369921775
  C   -1.93578677539856     -0.41947264038787     -0.37684290727809
  C   -3.31100011037902     -0.32758693631199     -0.38074852033922
  C   0.27722237738439      0.52907480475201      0.06046804569730
  C   -1.01781629654901      2.93202356511991      0.96877560087378
  N   -0.42786103271228      3.84306657819505      1.33866767285962
  H   -1.45127414195796     -1.32321374518135     -0.72017060885038
  N   1.41890853764149      0.41294733835375      0.04746053788239
  H   -3.63682063800342      2.81589430994844      0.85571311833603
  N   -5.32174199634162      0.91348271650013      0.09917820731147
  H   -3.90577988828342     -1.16422745678755     -0.72512566110303
  H   -5.74253967821841      1.82347675655493      0.17980783732215
  H   -5.84583585591008      0.25383549701332     -0.45003347355211
