18
Coordinates from ORCA-job 210optt
  C   -3.23220804453701      1.93480089270249      0.53272972893600
  C   -3.97358820482766      0.84636841295588      0.04389613773995
  C   -1.84354155096671      1.81918296534977      0.51678880266286
  C   -1.21630893924842      0.64724752478075      0.04412501621202
  C   -1.96495001373981     -0.42106219892511     -0.44614529235890
  C   -3.36316202057047     -0.28595561534892     -0.43290478477671
  C   0.20609740607217      0.52050641628185      0.05508646489642
  C   -1.07358060249339      2.92411242134264      0.99189393948930
  N   -0.53506074136124      3.86259776705195      1.37751739816069
  N   -1.36578519478803     -1.54444863032387     -0.97549675275232
  N   1.33865096334282      0.32930036729347      0.04009399806099
  N   -3.86215479509130      3.04429015194983      1.05557519276301
  H   -5.05485692625986      0.90798612673722      0.04943614463506
  H   -3.96878864417243     -1.09914230681006     -0.81359948707077
  H   -4.79602809477601      3.22659694257683      0.72828614854006
  H   -3.30110017755198      3.87379962540608      1.17908833535446
  H   -0.39149396111902     -1.68993094710807     -0.75716452610679
  H   -1.91518045791163     -2.38744991591274     -0.97826646438532
