22
Coordinates from ORCA-job 212optt
  C   -3.10546325949212      1.77100232289754      0.46816200542721
  C   -3.83083775038828      0.75962195843228     -0.18910571965615
  C   -1.71082367966224      1.58053265698826      0.60082668440222
  C   -1.08892271118977      0.46406135947220      0.01866818576718
  C   -1.82494530977169     -0.49809505375037     -0.65381558374902
  C   -3.20274431136103     -0.34237823856760     -0.73224059804925
  C   0.33178207494646      0.29199846827324      0.14116461931723
  C   -0.93035947227637      2.45293560595730      1.42276369331136
  N   -0.31513295005140      3.13571140506759      2.11076895103142
  H   -1.32546583713781     -1.34985576863124     -1.09102916844608
  N   1.46450141500274      0.13036468209646      0.21904109587572
  N   -3.73083922396573      2.87489420674348      0.98774646495327
  H   -4.90012069203718      0.86256274371885     -0.29965451623083
  H   -3.79576518081221     -1.08818665344905     -1.24495329539962
  C   -5.16934248807235      2.87052188680965      1.14688832621487
  C   -3.13338168158176      4.20306791985241      0.90192688396951
  H   -2.25388284638244      4.18956472341164      0.26329160356626
  H   -2.84213147312219      4.58618499559817      1.88061295869511
  H   -3.86071798536163      4.88353777988961      0.45351620590071
  H   -5.50400653455842      1.92208001466302      1.56434476013167
  H   -5.69933836746937      3.05409227503895      0.20346780645148
  H   -5.43851173525509      3.65918070948755      1.84781863651571
