22
Coordinates from ORCA-job 213optt
  C   -3.48493932161323      1.92589997829763      0.37332242755140
  C   -4.25675527861081      0.84762924029329     -0.10007560549617
  C   -2.10760876013891      1.82220916391938      0.47337851442027
  C   -1.44090986200654      0.64537494327205      0.10949456196886
  C   -2.20412340825157     -0.42313462859949     -0.35786219996886
  C   -3.57474810599192     -0.33283037837090     -0.46282054430278
  C   -0.02007182574180      0.52663569182172      0.20935569367579
  C   -1.37247691812032      2.95563880636362      0.96209591919591
  N   -0.81088428854215      3.87556549071588      1.35398481976526
  H   -1.70324161716151     -1.33853588283938     -0.64240992289750
  N   1.11939100279907      0.40580634126327      0.27939576253585
  H   -3.94801579459468      2.85424736787622      0.66882943325785
  N   -5.61118564703651      0.94558802860977     -0.20251367988470
  H   -4.12232082291748     -1.18699827432747     -0.83065386153389
  C   -6.28007114483720      2.16842770449428      0.19085366405992
  H   -6.11534560220909      2.39387342198904      1.24851498129692
  H   -7.34787888738303      2.05604059485832      0.02941463869644
  H   -5.93402647617671      3.01989244733885     -0.40139718808109
  C   -6.38394067614713     -0.18627054335095     -0.66923220294561
  H   -7.43653854480459      0.08011876613653     -0.67135944601890
  H   -6.25278607485677     -1.05631773067125     -0.01935165396707
  H   -6.10211194565701     -0.47022054909043     -1.68702411132792
