30
Coordinates from ORCA-job 214optt
  C   -3.49026410530953      1.79285379019155      0.18344528634651
  C   -4.13964436367136      0.58796153691865     -0.22021688057196
  C   -2.09352851812314      1.77561200266811      0.31553264749799
  C   -1.34245280493513      0.61564747512492      0.05650391539852
  C   -1.98344967820378     -0.52332732360889     -0.39452462410594
  C   -3.36333386203566     -0.52384364642966     -0.53502993915330
  C   0.08175108047308      0.61545107736612      0.21427753524179
  C   -1.40494781258747      2.99659478580403      0.61048126982883
  N   -0.86033460401685      3.98486898583844      0.82021484546081
  H   -1.40753434101863     -1.41092748618079     -0.61413142358697
  N   1.22232561283393      0.58707935959161      0.33666735351059
  N   -4.20163647043416      2.95187311384724      0.41999660891402
  N   -5.53870559928995      0.55276133067011     -0.29069751409568
  H   -3.84810819379787     -1.43658339772603     -0.84971412445189
  C   -4.00164756624457      3.76897898671408      1.59983066806165
  C   -5.23071861707826      3.41095896193427     -0.48703782619262
  C   -6.13334632438138     -0.53738835148249     -1.03560472798988
  C   -6.23120525074732      0.77767756211914      0.97428479448241
  H   -3.37137755512071      3.24901402477096      2.31837868341433
  H   -4.97265697516943      3.95935451871234      2.07089484282075
  H   -3.53432085301820      4.72884706332494      1.36650738264016
  H   -5.15918134769845      2.89047929352211     -1.43729763172797
  H   -5.08664363034027      4.48006458355927     -0.66401255546518
  H   -6.23965791100827      3.26278313164036     -0.08427462937842
  H   -6.05413704156097     -1.50402583604275     -0.51744600308277
  H   -5.66439984728360     -0.62322860719540     -2.01493870778440
  H   -7.19168618521292     -0.31979499932630     -1.17704581122688
  H   -5.78520441117765      1.60905748242274      1.51343382967549
  H   -6.18705757907554     -0.11536310459610      1.61182226364819
  H   -7.27751524476544      1.00867368584721      0.77277047187181
