30
Coordinates from ORCA-job 215optt
  C   -3.31642932119510      1.89655767783047      0.27605951182106
  C   -4.08974878441160      0.79721321152105     -0.10573365685965
  C   -1.90687315163377      1.76676219322367      0.26541913304788
  C   -1.34775726325084      0.52336617348805     -0.06128099239373
  C   -2.11864389465429     -0.56512838230263     -0.41527071540771
  C   -3.52126623409258     -0.43404590209613     -0.46601316471731
  C   0.08126880189676      0.36260933013637     -0.06179058076730
  C   -1.05820685449550      2.89735761589458      0.44913139717474
  N   -0.38541876013122      3.82017683786797      0.57757877970658
  H   -1.62584826265455     -1.49159241633800     -0.66046385081430
  N   1.21666576107819      0.20091730674541     -0.06764541347607
  N   -3.90706288008137      3.09269096129570      0.61564110230817
  H   -5.16196564030073      0.89516033653826     -0.07999596919092
  N   -4.30368935544083     -1.48876239329499     -0.83593825554652
  C   -3.43571792443514      3.86787760886294      1.75832992421821
  C   -5.29592210484495      3.31938206136374      0.28671657597822
  H   -2.62576520940281      3.35448400427551      2.26800624559911
  H   -4.25777411034376      3.98559252270022      2.46999908624446
  H   -3.08116081304551      4.85455199234784      1.45752848354129
  H   -5.50334976309849      2.99669795315978     -0.73264341679993
  H   -5.49249534388035      4.38897466629869      0.34976604011103
  H   -5.98401653947172      2.80590724488291      0.97230415472240
  C   -5.74225586317647     -1.34596464448398     -0.87155285165682
  H   -6.15456180662753     -1.13286368622343      0.12009059487568
  H   -6.18269653071830     -2.27118811764290     -1.23110862958971
  H   -6.04310684788368     -0.54161409441369     -1.54838989301529
  C   -3.69847293861169     -2.77316773046771     -1.12214534268471
  H   -4.47930384894502     -3.48451305827037     -1.37434802829582
  H   -3.14931043512555     -3.16020227385082     -0.25903511713705
  H   -3.00942408102140     -2.71048699904856     -1.96849515099601
