18
Coordinates from ORCA-job 218optt
  C   -3.09672076064052      1.79730464402951      0.42949100542039
  C   -3.82573319275838      0.70225445899087     -0.03429608654951
  C   -1.69465123271394      1.70020314622827      0.45575287276661
  C   -1.05934635925220      0.52897261819755      0.02648298553257
  C   -1.80371593530350     -0.55112644755166     -0.43216332612653
  C   -3.18484742034579     -0.45137023498398     -0.45758565535695
  C   0.37268990053134      0.43222844537965      0.05593165137895
  C   -0.91394293643676      2.80628839931292      0.92487551183424
  N   -0.30981109492531      3.70471092337983      1.30445893736248
  H   -1.29752418965244     -1.44747524213196     -0.75991419945067
  N   1.51436845570624      0.32600224670645      0.06819756204054
  S   -3.81078906839887      3.29550542778803      0.98679889824073
  H   -4.90407676510297      0.74346801949430     -0.06801766420370
  H   -3.77536352208868     -1.28521555903192     -0.81309371891167
  C   -5.56827703597743      2.98912702529912      0.77425930783070
  H   -6.05668357445178      3.90313829276272      1.10565196212580
  H   -5.90749798173319      2.16258119137697      1.39601634557386
  H   -5.81861728645578      2.81454264475329     -0.27057638950784
