22
Coordinates from ORCA-job 220optt
  C   -3.52668532892230      1.99503066782192      0.96113471412186
  C   -4.35067031401937      0.98792272110977      0.42162149402859
  C   -2.15764237041784      1.97477349431449      0.68725148106858
  C   -1.59913153656769      0.98045795024513     -0.12855297577935
  C   -2.42315608321414     -0.01024118584726     -0.64659784066408
  C   -3.77728170861127     -0.00879880387724     -0.37093933893704
  C   -0.19773864951212      0.96667797842939     -0.42404839929354
  C   -1.30036054699724      2.98411458921986      1.24173453426884
  N   -0.60932746654489      3.79683214392484      1.66271109382127
  H   -1.99412275699097     -0.78364101830591     -1.26862460781216
  N   0.91949747801850      0.93311082309395     -0.68244015401762
  S   -4.22210319959817      3.23541316515812      2.01609451889365
  S   -6.06538309773930      1.06447598001906      0.77793684402489
  H   -4.38751650530470     -0.79343804179809     -0.79135003434899
  C   -4.04528734497915      4.69619768091592      0.95948150309724
  H   -4.51873199637904      5.50991006496064      1.50564726470642
  H   -4.56597788034810      4.54272662314940      0.01729041062539
  H   -2.99803694542678      4.93849376499564      0.79654827230361
  C   -6.70440056459235     -0.35742469921023     -0.11983126309175
  H   -6.52676600145660     -0.26968155084676     -1.19040681778136
  H   -7.77744574606806     -0.34440738379966      0.06053428779147
  H   -6.29588143432833     -1.29125496367303      0.26250501297410
