22
Coordinates from ORCA-job 221optt
  C   -3.23608559617508      2.23779784070623      0.53072594235769
  C   -4.22013678871230      1.35230395600172      0.11706969140403
  C   -1.88791946963609      1.83119071751628      0.46611543347020
  C   -1.57770840120620      0.55541783319906     -0.00785893463766
  C   -2.57188925922665     -0.32501299781880     -0.41934928837656
  C   -3.90137249369220      0.07633677765237     -0.35657825173644
  C   -0.20937684944609      0.12509831836084     -0.08063272971846
  C   -0.84860777971736      2.72141775591659      0.88230641989197
  N   -0.03320167611260      3.45439490179911      1.22150264285036
  H   -2.28405537147816     -1.30085367499041     -0.77822392662942
  N   0.87193772971851     -0.25018101888513     -0.14998818527309
  S   -3.55495870426821      3.84949835726419      1.13535069570275
  H   -5.26159723176760      1.63907996944842      0.15512328697390
  S   -5.25206398610315     -0.92644966763156     -0.84062059469428
  C   -5.34523949402684      3.95555203944075      1.03170472519198
  H   -5.59143946673226      4.95125554087238      1.39461539503753
  H   -5.82593745768483      3.21766317962780      1.67147434382292
  H   -5.69019929210257      3.85896796551983      0.00376196793730
  C   -4.45650437963791     -2.44078601692204     -1.39018012051618
  H   -5.26584508177829     -3.09451168174825     -1.70815958983832
  H   -3.91339937103995     -2.91888382743126     -0.57713243843226
  H   -3.79786957917406     -2.25486626789815     -2.23650648478798
