30
Coordinates from ORCA-job 226optt
  C   -2.57145302914083      2.92144234147261      1.15405077102417
  C   -3.66870972818591      2.06653061529494      0.98081022751466
  C   -1.34725765821548      2.55263430159183      0.57830650705060
  C   -1.24453898476080      1.40498396920544     -0.21561885851147
  C   -2.35403608038030      0.59062753676249     -0.40504554775335
  C   -3.54681628141174      0.91667129491775      0.20944770757314
  C   0.00183427920525      1.05146317110958     -0.83081510656956
  C   -0.18364647464978      3.35545401452406      0.81532275875620
  N   0.75011230937359      3.99004614266163      1.01631910902096
  H   -2.26802128668731     -0.29780914901043     -1.01385346990602
  N   0.98258357943189      0.74352213607424     -1.33909276884255
  N   -4.93560286300999      2.38557702801213      1.51323487013556
  H   -4.40843544034091      0.27187151397543      0.09021300663255
  C   -5.14721307491060      2.62356070670117      2.85278404074301
  O   -4.26179295960477      2.68138884873312      3.66371162437737
  O   -6.41986993459849      2.80196271050072      3.22497444703900
  C   -7.47530248933135      2.84585778471896      2.27696937805440
  H   -7.28749480724643      3.60285057580666      1.51376525166943
  H   -8.36553144282570      3.11414501781281      2.83716135275172
  H   -7.63446628688871      1.86682792589500      1.81718647834371
  H   -5.72213432753173      2.11781033037653      0.94515902123296
  O   -1.96888842126231      5.37590394788248      0.18623219534502
  O   -2.28922199004636      6.31181402431505      2.21033328976582
  C   -2.29728673966055      5.35792242838847      1.48307699753764
  N   -2.69640139318011      4.10247451049088      1.88515909745947
  H   -1.16453137953446      6.45177703918111     -1.31494659413259
  C   -1.34193789639704      6.58292663661656     -0.25221406717334
  H   -1.99341220422997      7.43462115340851     -0.06885539351347
  H   -0.40004214064700      6.71898960983437      0.27733062881951
  H   -3.08476485333177      4.03524183274562      2.81874304555535
