30
Coordinates from ORCA-job 227optt
  C   -1.37846960464534      3.31666931045949      0.98702070951830
  C   -2.75965929490628      3.12143056756322      0.97894224996700
  C   -0.52760063951549      2.21554963218097      0.76575451889853
  C   -1.07889618408667      0.94830563623531      0.54299311940927
  C   -2.44587371676667      0.75918776018343      0.53630169849036
  C   -3.28560355373119      1.85423507700083      0.75582416599632
  C   -0.21951605302376     -0.17942620382902      0.31784671170187
  C   0.88596111848595      2.40967561996319      0.77284424220530
  N   2.00922900950593      2.64857102140629      0.79475344899608
  H   -2.85054732773286     -0.22834066007714      0.36180115139107
  N   0.44693481980020     -1.09428637251679      0.13482257784708
  N   -4.65573062177632      1.60798888820314      0.73980539701924
  C   -5.67936797021459      2.50507896764024      0.92025348869434
  O   -5.57374223547069      3.68540515496287      1.12228749455285
  O   -6.84564954339864      1.85004567513162      0.83477743719202
  C   -8.00644060118559      2.66419304705934      1.00694422540500
  H   -8.04176423969679      3.43667100742720      0.24100544365982
  H   -7.99597475161151      3.13120806640643      1.99005837342447
  H   -8.85202522328062      1.99075377659617      0.91165743024899
  O   -2.60508863888658      5.85150494788996      1.49867350412705
  O   -0.55274275367325      6.75384009256891      1.60940144796770
  C   -1.27646573963243      5.80834945605367      1.45218242118245
  N   -0.77197751161957      4.54552745591305      1.20134360743628
  H   -4.23455738881394      6.99998825363260      1.76342463023999
  C   -3.15889937210762      7.14446560660020      1.76033901143774
  H   -2.81179125369023      7.51063290887339      2.72433914699430
  H   -2.86148513443997      7.84275651331066      0.98076641673872
  H   0.23968932207867      4.56136250214140      1.17877339775035
  H   -3.42538503768190      3.94554220216737      1.14418788178940
  H   -4.94971987828214      0.65755408885189      0.57834464971806
