18
Coordinates from ORCA-job 237optt
  C   -0.82546642667456      3.02461252926874      1.19972810396312
  C   -2.08282970495928      3.44271033177285      1.59799760270427
  C   -0.64337161238330      1.76367631293940      0.63163089457765
  C   -1.71894995982721      0.87921812409707      0.45545782844718
  C   -2.98450958350959      1.34250325646271      0.85208798841467
  C   -3.16654483894810      2.60088930512922      1.41933796883029
  C   0.68715857682587      1.43246136584019      0.20213053160339
  N   1.76812061803031      1.22386585491224     -0.12099125536879
  C   -4.13445275631193      0.49690571131921      0.68637062963415
  H   0.03258921153175      3.67343993740267      1.31275637735867
  H   -2.21807849872114      4.42160509275988      2.03580333243666
  H   -4.16112154490192      2.90600194832041      1.71505914366691
  C   -1.59619714118186     -0.46515927387631     -0.12749316415701
  N   -5.06039197448466     -0.16776612953326      0.55497988754785
  C   -0.55414220100545     -1.27664468092781      0.00468827934954
  H   -2.47105810933796     -0.81287408485863     -0.66616579200588
  H   0.33121577175870     -1.01178813632359      0.56630153445050
  H   -0.57145982589964     -2.25884746470501     -0.44793989145318
