18
Coordinates from ORCA-job 238optt
  C   -0.94728818576648      3.24872870642017      1.03052577296059
  C   -2.29755233021464      3.45924331501743      1.32340242736759
  C   -0.56220185188792      1.94968832119619      0.65502493890495
  C   -1.48732739219185      0.91054756507384      0.61180568854451
  C   -2.81668128807936      1.14959154442440      0.93369716692852
  C   -3.22311457272540      2.43585843257640      1.28722716527357
  C   0.78283728714097      1.63148981078859      0.26440005383549
  N   1.84276945309700      1.33095559660513     -0.05579451867340
  C   -3.76874473856371      0.07695735203320      0.89015189505607
  C   -0.03821842759509      4.40022321296144      1.12487180223703
  H   -2.61740345276161      4.45628494958666      1.59779788094806
  H   -4.26073993236886      2.62235664804864      1.52821001370485
  H   -1.16772079914966     -0.07948918283507      0.31710533541394
  N   -4.53361759435638     -0.77730179266605      0.85562595107462
  C   1.26467535132367      4.37616182120950      1.38114616565596
  H   -0.52943424935335      5.36157569542643      1.01463939615607
  H   1.82068372593846      3.46295314192787      1.53942642244674
  H   1.81771899751423      5.30313486220518      1.45241644216482
