22
Coordinates from ORCA-job 240optt
  C   -0.96514594411065      3.09199238238969      1.03374875964435
  C   -2.26436042281238      3.38425871317549      1.45047265137661
  C   -0.70766513438860      1.81339647315087      0.50449317373754
  C   -1.70678539550269      0.82615328919621      0.43643821795468
  C   -2.99241964692863      1.17386574449316      0.87532897935931
  C   -3.26822462192163      2.44292375610362      1.37590598397190
  C   0.58533922498214      1.53277927672098     -0.05652575717433
  N   1.61798771541025      1.31825597118228     -0.50843331804087
  C   -4.05505383205944      0.21063280892026      0.81607447035333
  C   0.03842800149791      4.16221346811423      1.16057407893627
  H   -2.47799844965621      4.37031571428232      1.84151990136827
  H   -4.27194971655651      2.67712764809992      1.70367542875410
  C   -1.48620843911435     -0.53145122188694     -0.09048808366836
  N   -4.91455774154867     -0.54837231672395      0.77006093791688
  C   -0.39409107510069     -1.26355774259368      0.08583813545116
  H   -2.33272787858196     -0.96285152298587     -0.61374591364028
  H   0.46680005538010     -0.90904414829290      0.63605424921121
  H   -0.34041496905091     -2.26558560536471     -0.31775050249134
  C   1.33595553416116      4.02019657436408      1.40154077633439
  H   -0.37438375346553      5.16424382588029      1.10387247672129
  H   1.81410789725578      3.05678907539149      1.50792547006783
  H   1.96478859211153      4.89361783638312      1.51102988385603
