22
Coordinates from ORCA-job 243optt
  C   -1.08023455885131      3.28086693787654      1.05621500365076
  C   -2.41526516587052      3.59845587513896      1.29175463005273
  C   -0.79242108538806      1.96545991490654      0.65182952245076
  C   -1.81479127861104      1.03363522848796      0.51883140636027
  C   -3.13458853833865      1.37633581623847      0.78700976134953
  C   -3.45902021394558      2.68196626747358      1.19542869412462
  C   0.53245510114572      1.53189424789660      0.31247810761663
  N   1.57479321474628      1.14269425237023      0.03126165118316
  C   -4.12688983433359      0.36140391217721      0.57827703132385
  C   -0.08054352167369      4.34397732088092      1.23501261995191
  H   -2.65330071293470      4.61304405011670      1.58911299175570
  C   -4.81524548743011      3.15158366834036      1.51424287479772
  H   -1.58204959691547      0.03175496391012      0.18459821149235
  N   -4.88644126814856     -0.47973055758913      0.39785176573534
  C   1.20493895150686      4.19563408133605      1.53397216615934
  H   -0.48295597802292      5.34832383706779      1.15102195789132
  H   1.67493862873312      3.23187762330175      1.66920217569934
  H   1.83166568790466      5.06752596478768      1.66563902009326
  C   -5.83694706810310      2.42122021644359      1.94592465105925
  H   -4.94597921244250      4.22457096735102      1.41800665425331
  H   -5.77824904548579      1.35329337371488      2.10138055406507
  H   -6.78214901754102      2.89644203777205      2.17184854893374
