23
Coordinates from ORCA-job 246optt
  C   -1.33526680864035      3.15515123868201      0.69557943045424
  C   -2.47353122315825      3.26686663868096      1.48975337695054
  C   -0.93592528961166      1.92120722703606      0.18970761626416
  C   -1.66442825783040      0.76856707932510      0.46673689984959
  C   -2.79902278627222      0.87755493927020      1.25950211315463
  C   -3.19870091357557      2.11520714236100      1.76544004377799
  C   0.24148986610491      1.83727065449444     -0.62965376870075
  N   1.17975345893024      1.77713009611442     -1.28665901380349
  C   -3.57217439763340     -0.29473943786464      1.56243426413346
  H   -0.74444173359455      4.03172372807631      0.46075850745148
  C   -2.90457892352958      4.60916034283519      2.03806251953920
  H   -4.08830766249014      2.16935568806453      2.38044614424491
  H   -1.35373291482787     -0.18895434319418      0.07353603168357
  N   -4.19585826716395     -1.22576785794815      1.80702584935230
  C   -1.85059130341487      5.17847040467557      2.98962857012303
  H   -1.64067125362940      4.48939359590362      3.80785757841666
  H   -2.19467778595554      6.12282351482461      3.41261665754402
  H   -0.91496161335293      5.37115903906008      2.46077304427215
  C   -3.21168932756999      5.59512301788832      0.90979517562183
  H   -3.82337729913000      4.44426605231209      2.60615881864565
  H   -2.31448751020594      5.80948511907975      0.32581441560573
  H   -3.57311215193017      6.53809851558626      1.32114175252990
  H   -3.96973590151830      5.20046760473631      0.23304397288914
