31
Coordinates from ORCA-job 24optt
  C   -3.20577821550075      0.10860320342345      0.75669251669078
  C   -3.07433773566923     -1.15809272244450      0.20251533354390
  C   -2.07319930943265      0.87212447366784      1.02809625446656
  C   -0.80045099406852      0.38047113228117      0.74901146966544
  C   -0.64949091025720     -0.88397029050735      0.19455008838476
  C   -1.79344373560279     -1.63369776010999     -0.06844029840515
  H   0.06700987399267      0.99056994338398      0.96694266562703
  C   0.72699301054540     -1.43326977480673     -0.11299816576270
  H   -4.18617735159527      0.50961829551592      0.98086037912639
  C   -2.21955445723441      2.18023081765552      1.60357002224437
  C   -4.29538435115093     -2.00032297775404     -0.09825214688906
  H   -1.68292607710544     -2.62321730992340     -0.50025273857526
  N   -2.33745504017218      3.22579813737838      2.06211210168254
  C   -4.41001383030853     -2.29709169940412     -1.59437214512540
  H   -5.31987347854138     -2.86196096946410     -1.80204077001760
  H   -3.56141410783337     -2.89316468918940     -1.93629700573750
  H   -4.43280688411272     -1.37712459927450     -2.17893516750283
  C   -4.28997136740547     -3.29629083672366      0.71419443347210
  H   -5.17085399875672     -1.41755867116590      0.19952847606118
  H   -5.20028266117538     -3.86738635204179      0.52649942743361
  H   -4.22369833134675     -3.09203705530254      1.78305190595707
  H   -3.43973561359258     -3.92294882828467      0.43719497005445
  C   0.89168090885155     -1.71916909819021     -1.60662033623636
  H   0.20035312399851     -2.49995352695127     -1.93011291393488
  H   1.90506975600489     -2.06261957786874     -1.81885921137887
  H   0.69638697651250     -0.82793313944452     -2.20338550542431
  C   1.02162123579373     -2.68487377946064      0.71572613856039
  H   1.45127339908792     -0.66381428377355      0.16640027181859
  H   2.03384948220957     -3.04167132240409      0.52044843678795
  H   0.32860612752036     -3.48916101039547      0.46033320190909
  H   0.92543455634530     -2.48355572842100      1.78285831150372
