32
Coordinates from ORCA-job 250optt
  C   -0.90605665105088      3.16984319553381      0.86085912496112
  C   -2.15872539533662      3.49004089989374      1.37369708596786
  C   -0.67611936770336      1.83713411542783      0.48705697381172
  C   -1.66720369166990      0.87415105856930      0.62263973787756
  C   -2.90660313910408      1.23155966536189      1.13654397757057
  C   -3.17541921131002      2.55305118793784      1.52408700091551
  C   0.59992387465049      1.44841914772889     -0.04504221648048
  N   1.62398710217307      1.14652266282352     -0.46651385866160
  C   -3.92009259214850      0.22238860497941      1.26546304837694
  C   0.20451458641791      4.18988913813793      0.74420696376918
  H   -2.35086973004915      4.51200947219113      1.66736857074407
  C   -4.54891588946582      2.92664042542382      2.03557764243822
  H   -1.47497702747778     -0.14877983610977      0.32912260139404
  N   -4.73509024711900     -0.57860267299188      1.37284015393362
  C   1.17590751923461      4.02690218307318      1.92071498899709
  H   0.65987561965646      4.22556094207286      2.86238672014684
  H   2.00081269268837      4.73365316169244      1.82541330207511
  H   1.59298038002198      3.02081516542236      1.96017987108709
  C   -0.29131217984620      5.62923682884136      0.65603522280104
  H   0.75315270104148      3.96121289590671     -0.17379888058965
  H   0.54644590208245      6.28911532089495      0.43145493552092
  H   -0.72032842095325      5.96231405393488      1.60310071960605
  H   -1.04186463836085      5.75217226228782     -0.12564595582057
  C   -4.56177650486578      4.18533308532451      2.89614451793312
  H   -3.82797762619497      4.13373215607792      3.70137130199917
  H   -5.54847702265807      4.31108904578272      3.34156943497723
  H   -4.35996905998316      5.07781017488815      2.30059063595228
  C   -5.51244006308873      3.07617742656464      0.85074761411504
  H   -4.90127418336191      2.09127518232983      2.64714905597112
  H   -6.51493479770884      3.30978614384536      1.21059826064652
  H   -5.56776382217864      2.16142753252328      0.26084284700670
  H   -5.18238911633120      3.88878937362939      0.20018860095650
