24
Coordinates from ORCA-job 251optt
  C   -0.87189162819420      2.92971728807144      0.74359125333542
  C   -2.08329360423696      3.27031619986752      1.31869886366761
  C   -0.62018371356692      1.61185793240410      0.36351122364388
  C   -1.57195011558108      0.59877925436516      0.55039476403267
  C   -2.78961316368941      0.97437399943404      1.13628062409026
  C   -3.04254418760416      2.29263954814975      1.51413137746674
  C   0.64310769992446      1.33015162278450     -0.26278694257051
  N   1.66203846303718      1.15543559960847     -0.76003874618061
  C   -3.81302922803748     -0.00036284843000      1.40111151848814
  H   -0.10990457894943      3.67835569468954      0.57404287085943
  H   -2.27892587386159      4.29197915998903      1.61243234783629
  H   -3.99398754477032      2.53374958550223      1.96851636189174
  C   -1.30400652128032     -0.80100283075696      0.14835163638535
  N   -4.65950869367456     -0.73878064187773      1.63394162972123
  C   -0.15094649936803     -1.45062825257932      0.58600943070541
  C   -2.20208332111128     -1.48110658664786     -0.67253046388768
  C   0.09652818140632     -2.76167565860202      0.21143037892712
  C   -1.94755838693011     -2.78926538089752     -1.05249767326239
  C   -0.79955168018711     -3.43177440897547     -0.60988857395165
  H   0.99113850485554     -3.25902314343842      0.56140124474020
  H   -0.60338006634559     -4.45426109914041     -0.90457480258160
  H   0.54869492120245     -0.93190334357794      1.22906324740510
  H   -3.09697544591106     -0.98199724101593     -1.02200936194882
  H   -2.64755351712634     -3.30636444892624     -1.69496220881334
