24
Coordinates from ORCA-job 252optt
  C   -0.49222102013260      3.87958132221191      1.36092974637166
  C   -1.77516811606121      3.96454024203070      1.90452215933029
  C   -0.16046942940271      2.71556285616165      0.64835106948688
  C   -1.07712933599752      1.67869996362790      0.49694848918858
  C   -2.34341390589196      1.79091486373313      1.05491192074519
  C   -2.69298027394585      2.94239117720927      1.76000013611215
  C   1.11973058625097      2.56382037370705      0.01256165237275
  N   2.13016256429309      2.40383054425005     -0.50652424716752
  C   -3.29251622091735      0.72529355639436      0.90291601109654
  C   0.45558714013389      5.00110816661665      1.54274674127473
  H   -2.04222319570066      4.84744955665889      2.46999166489783
  H   -3.67933222405727      3.02244783676300      2.19632995701581
  H   -0.80256470272858      0.79476939827224     -0.06192718465673
  N   -4.05715481769656     -0.12188298901240      0.78692365571275
  C   1.77364136327068      4.77887421034391      1.93929422691609
  C   0.01857135593786      6.31115993973846      1.34320674599627
  C   2.63575428638649      5.84735357547472      2.13170620299684
  C   2.19514164282571      7.14704454999515      1.92412887117704
  C   0.88467947646139      7.37716494718685      1.52766372324710
  H   3.65431820576234      5.66230945597662      2.44568657737998
  H   2.87167946874983      7.97882222308014      2.06977944236182
  H   2.12381585549202      3.76988362456566      2.11346445059264
  H   -0.99899422347434      6.49108841334405      1.01861612846542
  H   0.53733552044233      8.38747219166996      1.35652185908585
