24
Coordinates from ORCA-job 253optt
  C   -0.77265439783499      3.98590030574805      1.05472579148739
  C   -1.98635725562237      4.41463926120371      1.58671447511143
  C   -0.59010533479264      2.65632562934760      0.68282211314946
  C   -1.61400130310120      1.72787151473149      0.83252559929376
  C   -2.82604586773236      2.15569873467542      1.36255460171612
  C   -3.01173889899980      3.48408289278056      1.73715645897017
  C   0.66962968004795      2.24171329207001      0.13018297735463
  N   1.67771228806037      1.91395158505979     -0.30776403168376
  C   -3.89623203215159      1.21296565737008      1.53613383906181
  H   0.03398706374724      4.69187468447423      0.90687620813111
  C   -2.18172865392124      5.82725819648388      1.98462046006997
  H   -3.95759950069565      3.78471397054129      2.16834843181282
  H   -1.47118228807352      0.69642277445224      0.54324321658677
  N   -4.75300312877284      0.46287644676864      1.67283124237867
  C   -1.15880984122863      6.53280830685685      2.61736392341133
  C   -3.39183380754832      6.47280530130964      1.73305230487804
  C   -1.34332146718137      7.85474925608228      2.99253901655836
  C   -3.57413459705447      7.79594665018628      2.10503713988126
  C   -2.55101959298186      8.48968022924758      2.73683404489044
  H   -0.54472467958912      8.38722743848893      3.49202915083016
  H   -2.69414418843316      9.52169953919739      3.02846153498809
  H   -0.22243777369995      6.03612548057064      2.84028553201942
  H   -4.18587164144631      5.94376415689049      1.22043429058223
  H   -4.51471278099414      8.28772869546284      1.89474167852030
