34
Coordinates from ORCA-job 255optt
  C   -1.25376305609755      3.35404764445352      0.76978398758259
  C   -2.45449393849019      3.64661340305357      1.40754644654108
  C   -0.93347731147859      2.05042748999993      0.39915031291061
  C   -1.80069635349639      0.97732540699312      0.64809243787399
  C   -3.00706436365367      1.28872104335494      1.29109538622063
  C   -3.32547365724589      2.59261777826919      1.66230788617332
  C   0.31002616024062      1.84751249671866     -0.29444196650049
  N   1.30995879637381      1.73603086239215     -0.84552090851004
  C   -3.94748526307162      0.25574183752595      1.63321115917955
  H   -0.56165073095388      4.14948415479983      0.52570931979281
  C   -2.79376920693659      5.03184767569487      1.80222642027661
  H   -4.25636930583948      2.77238916850947      2.18425562572542
  C   -1.46131606645685     -0.40828472574974      0.25347947332283
  N   -4.72728735632416     -0.53274761670956      1.92677791587327
  C   -0.24272062148937     -0.97008236120350      0.63143194610510
  C   -2.35693004396313     -1.16495366672346     -0.50070241547966
  C   0.07196248634369     -2.26881238774271      0.26417470283584
  C   -2.03626556341615     -2.46073086952971     -0.87315934212143
  C   -0.82283127047644     -3.01519948721549     -0.48998333378008
  H   1.01775400704478     -2.69698220410269      0.56805408784815
  H   -0.57483903436399     -4.02815252279499     -0.77853970418796
  H   0.45629182903090     -0.39237264787882      1.22279722138775
  H   -3.30279918206546     -0.73476328636122     -0.80457197514799
  H   -2.73616992924888     -3.03712776082321     -1.46316513372627
  C   -1.81075717484281      5.89052856520340      2.29362688493068
  C   -4.10242786916747      5.50096517091788      1.68969762644872
  C   -2.12948990888258      7.18778092928594      2.66493509689187
  C   -4.42026625631288      6.79881317225148      2.05963976944962
  C   -3.43492941021756      7.64562852080239      2.54874271102081
  H   -1.35790307378808      7.83955573539970      3.05311674201202
  H   -3.68331044116289      8.65820476216880      2.83788139113075
  H   -0.79507117191299      5.53293944092898      2.41003167421071
  H   -4.87171721486481      4.85391194892867      1.28652933167502
  H   -5.43822850281336      7.15142232918256      1.95844922203415
