34
Coordinates from ORCA-job 256optt
  C   -0.95085001601921      3.43163137678157      1.10966257786347
  C   -2.22553421594615      3.84565812784596      1.48510593554151
  C   -0.82795699427230      2.18401188331363      0.47622415890834
  C   -1.95068045454335      1.39897640522889      0.24279482857954
  C   -3.21026822492457      1.83596991144664      0.63437807376959
  C   -3.36668371325793      3.07860428716739      1.27012482447887
  C   0.43791195679125      1.69371809004232      0.00747930642205
  N   1.43090052423115      1.27001420722934     -0.38105107125461
  C   -4.33493656767231      0.99836680076918      0.32413936908687
  C   0.21303940609839      4.30264522382511      1.38792712246434
  H   -2.32858666289054      4.78803718206353      2.00800781632051
  C   -4.68459422423405      3.58595918306606      1.71293605042008
  H   -1.84566069996799      0.45012847065518     -0.26515383715605
  N   -5.21043383466245      0.30502784022080      0.06080976512502
  C   1.38113805691896      3.79083878180874      1.95123838086446
  C   0.13655481307667      5.66742632327380      1.10838600967275
  C   2.45007937807980      4.62913913399237      2.22844759433578
  C   1.20927525026141      6.50234350780911      1.37858251818456
  C   2.36832801507319      5.98443594628262      1.94065414683237
  H   3.34857215033212      4.22059960757815      2.67137770374927
  H   3.20617391915642      6.63551523771292      2.15248017203997
  H   1.45114745570419      2.73730523488120      2.18828136326190
  H   -0.76130378073327      6.06974832141586      0.65534538647119
  H   1.14197113581183      7.55663441585633      1.14476394889335
  C   -5.04046654930258      4.90857205940158      1.44733859229157
  C   -5.57271524679716      2.77334727168689      2.41627235760468
  C   -6.26317162373529      5.40647160958682      1.86910181284385
  C   -6.79157573334852      3.27588909416520      2.84499484534422
  C   -7.14089146156184      4.59081368833267      2.57033894562301
  H   -6.53290922751689      6.43000758074712      1.64472547361693
  H   -8.09547505694487      4.97862284458203      2.90071923193852
  H   -4.36296380790723      5.54096050979634      0.88667114617797
  H   -5.30562216194007      1.74950175247287      2.64317911394272
  H   -7.46924180335671      2.63691808896156      3.39528633574133
