34
Coordinates from ORCA-job 257optt
  C   -1.09142216383943      3.21035202896069      1.15346683452078
  C   -2.45398970533194      3.31851511107989      1.48398397256420
  C   -0.60900708680091      1.96632561233063      0.71384343113546
  C   -1.43902926395575      0.85747011827595      0.59283086068109
  C   -2.78376638766676      0.98519216695840      0.90891753359735
  C   -3.28063937586375      2.20740335141764      1.35102462337034
  C   0.76766497446984      1.80307028921903      0.33000073201913
  N   1.85623353025503      1.62848591886448      0.01300631707125
  C   -3.66154107393560     -0.14445490465019      0.78904456139787
  C   -0.17625901709614      4.37756216415023      1.22173481874540
  C   -3.05519594347234      4.57574650872675      2.00181673107165
  H   -4.32553409369054      2.28893358843336      1.62114965930737
  H   -1.03993897645380     -0.08527688451421      0.24588893462234
  N   -4.36694173492699     -1.04381394489001      0.69163428376275
  C   0.99502260793426      4.31878861828493      1.97258109010992
  C   -0.48496612880064      5.54749411451653      0.52948193722814
  C   1.83930552400024      5.41769577370516      2.03977708867927
  C   0.36528763361758      6.63956437755524      0.58731205127828
  C   1.52662221957047      6.57853862388180      1.34719788146244
  H   2.74392669608260      5.36306751633625      2.63063432922369
  H   2.18825102757006      7.43338404625553      1.39545385772165
  H   1.24342224464470      3.41336162239171      2.51255790631223
  H   -1.39619570228953      5.59838098423129     -0.05350812776984
  H   0.12015964772981      7.54013496568409      0.04002592090834
  C   -4.22402185924229      5.07362669596153      1.43010798372279
  C   -2.48945615802760      5.25094260943805      3.08255300303570
  C   -3.08159489561387      6.40117144878081      3.57811263008975
  C   -4.81146536602628      6.23160652171808      1.92089207539724
  C   -4.24147403015329      6.89749504620626      2.99603456172974
  H   -2.63612048214857      6.91205964585505      4.42151728620120
  H   -4.69924610072273      7.79921030747395      3.38087272420921
  H   -1.58270881831105      4.87087368732956      3.53585693771270
  H   -4.66542916612741      4.55966516109161      0.58436562253858
  H   -5.71347257537730      6.61289710893983      1.46056994634194
