14
Coordinates from ORCA-job 260optt
  C   -0.83398290952717      3.10627350705000      1.08710894270122
  C   -2.14661602858316      3.40837942333467      1.39040123296590
  C   -0.53320703207917      1.81041156385887      0.67387696380689
  C   -1.52722913645739      0.84299326719144      0.56925588804084
  C   -2.83750242559225      1.18614914467953      0.88615156019558
  C   -3.16098076551286      2.47604747004820      1.30093063126881
  C   0.82404092719385      1.46986424574788      0.34921702845198
  N   1.90733776903441      1.19800176946124      0.08987917184453
  C   -3.87390977959443      0.19670815994744      0.78368999929454
  H   -0.06763388569134      3.86387903756518      1.17110897904440
  F   -2.44559085654015      4.64583481483527      1.78290592568588
  H   -4.17656176595816      2.75096738926368      1.54873109257516
  H   -1.28532090901263     -0.15944305760369      0.24696714997058
  N   -4.70073320167956     -0.59340673537972      0.70170543415370
