14
Coordinates from ORCA-job 261optt
  C   -0.88267342266288      3.11095009504745      1.09399628300292
  C   -2.18115275408580      3.45930382172090      1.41208903535307
  C   -0.53549699012286      1.82718795980609      0.67881347722085
  C   -1.55272841814551      0.88282797742231      0.58784246685383
  C   -2.86919799606330      1.19966132871090      0.89566490101984
  C   -3.16924395603587      2.49853710850925      1.30947038255743
  C   0.81439732941948      1.48940176597480      0.35588177658152
  N   1.89776369971400      1.21975000530065      0.09699905566667
  C   -3.89074491902748      0.20351467408690      0.78497949581971
  F   0.07522861661291      4.01872672245447      1.18203974535259
  H   -2.39582180231911      4.46863619160162      1.73128350344988
  H   -4.19430976548112      2.74351487090975      1.55040102396468
  F   -1.24975936777796     -0.33979189887511      0.19877665936201
  N   -4.72417025402449     -0.57956062267001      0.70367219379500
