14
Coordinates from ORCA-job 262optt
  C   -0.83968673691738      3.12211757853445      1.09244027232226
  C   -2.15088126594251      3.42655082894591      1.39694482807583
  C   -0.52665732192588      1.82903409034861      0.67877105224773
  C   -1.53565308056557      0.87832773639240      0.58345225072603
  C   -2.85180614862418      1.19930788878450      0.89294385566299
  C   -3.16316769734679      2.49296025264304      1.30609263903391
  C   0.82123774963236      1.47323598702387      0.34880553858620
  N   1.90558025794054      1.20747699789872      0.08923713986752
  C   -3.87343053042719      0.20108313843832      0.78288548803047
  H   -0.07071016291606      3.87729516927474      1.17420336508906
  F   -2.44979245910416      4.66438542153496      1.79016799871808
  H   -4.18005106986024      2.76446102074841      1.55227928126899
  F   -1.23918429684342     -0.34873415502399      0.19283546996315
  N   -4.70368723709949     -0.58485195554393      0.70085082040777
