14
Coordinates from ORCA-job 265optt
  C   -0.85791810941034      3.15120946423855      1.10249623200260
  C   -2.16487830462371      3.48364501875547      1.41477133370841
  C   -0.53837348278759      1.85933225017133      0.68731687742548
  C   -1.53855687345654      0.89082887099872      0.58416481491826
  C   -2.85492243957696      1.23129183311664      0.90085595457668
  C   -3.16039471452403      2.52712094129146      1.31430361990769
  C   0.82262733497192      1.53937963656478      0.36903659481306
  N   1.91949056234346      1.31476606250013      0.12166085572108
  C   -3.90403616816134      0.25839822144193      0.80596955592223
  H   -0.06620910690657      3.88428746738683      1.17488837715340
  H   -2.40719479485529      4.48665640755629      1.73586197539601
  H   -4.18718064134849      2.76732626490940      1.55407688752417
  Cl  -1.15511706179389     -0.69573614723879      0.07603853202141
  N   -4.76522619987063     -0.49584629169275      0.74046838890954
