14
Coordinates from ORCA-job 267optt
  C   -0.83118970398734      3.07836181563357      1.07756974129532
  C   -2.14368910261980      3.39625615180290      1.38667541386049
  C   -0.52787610322053      1.78304272404392      0.66433842228973
  C   -1.52029028390388      0.81467482180242      0.55992445030820
  C   -2.82972008648318      1.15925530217906      0.87648132860741
  C   -3.15081576730846      2.44986871673231      1.29086224248863
  C   0.83053121666964      1.44562092516430      0.34149047903331
  N   1.91491654214594      1.17656856076479      0.08365648501195
  C   -3.86857063430619      0.17225528056450      0.77603548666647
  H   -0.05385347762804      3.82525842415603      1.15633743285313
  Cl  -2.53011113866273      4.99543554597437      1.89887130079344
  H   -4.17124151295439      2.70976228875387      1.53489402690635
  H   -1.27804855057154     -0.18828372107193      0.23889476839806
  N   -4.69793139716949     -0.61542683650012      0.69588842148752
