14
Coordinates from ORCA-job 269optt
  C   -0.84259518978802      3.10850879758959      1.08776616733257
  C   -2.15225833985178      3.43157667058259      1.39802576958576
  C   -0.52963369695530      1.81634676388731      0.67358713967228
  C   -1.52768805623186      0.84567796516607      0.56936997487334
  C   -2.84311680594933      1.18914467827991      0.88700918368125
  C   -3.15439477574366      2.48186185994547      1.30060906192514
  C   0.83223629657533      1.49881373567642      0.35620469003071
  N   1.92859234779249      1.27282072509776      0.10888132849157
  C   -3.89410702501232      0.21804456940076      0.79312471194803
  H   -0.06102471099623      3.85128945902543      1.16468175367679
  Cl  -2.53848446554448      5.02938113367984      1.90990548133913
  H   -4.17665628134601      2.73577697171169      1.54360480548743
  Cl  -1.14464000958385     -0.73942407637255      0.06185027466114
  N   -4.75412928736497     -0.53715925367031      0.72729965729486
