15
Coordinates from ORCA-job 272optt
  C   -0.86409054384724      3.17300141254192      1.10938077445384
  C   -2.17426776026884      3.49032911811046      1.41818966518480
  C   -0.53381266111418      1.88482727181331      0.69352461870451
  C   -1.51825249340999      0.89435160752732      0.58179128759095
  C   -2.84074117009164      1.22605828908923      0.89704549681989
  C   -3.15617714740545      2.51678560869207      1.31081386249240
  C   0.80834994951375      1.51533407589630      0.36504076583613
  N   1.85280541099870      1.13050157636920      0.08173888731910
  C   -3.86335270393318      0.22844897253530      0.79067120773129
  H   -0.08017313749558      3.91416218862676      1.18527383049004
  H   -2.43145480149453      4.48865828212116      1.74060980587950
  H   -4.18641791930851      2.74540470972137      1.54806714596626
  O   -1.25602513161619     -0.35479260876746      0.18860745162230
  N   -4.70066657284463     -0.55146479660037      0.71387480937403
  H   -0.31548331768248     -0.47509570767657     -0.00474960946505
