15
Coordinates from ORCA-job 273optt
  C   -0.87304609007509      3.11068766426050      1.09397377790173
  C   -2.19257596182153      3.42851163311013      1.40383251565114
  C   -0.55322996907235      1.81187019396907      0.67714898639228
  C   -1.55020563307246      0.84983206500833      0.57544273783796
  C   -2.86504514188210      1.17423842408791      0.88677864667804
  C   -3.17999765345479      2.46957699823437      1.30117562584298
  C   0.80338291377836      1.48168360952948      0.35596770077449
  N   1.88276996412608      1.19667842140525      0.09352069787482
  C   -3.89486482133373      0.18234574334214      0.78317183133359
  O   0.13230147134054      3.99643428939828      1.17317059906048
  H   -2.43879944158549      4.43296277271839      1.72565870452438
  H   -4.20468976967587      2.71757751626731      1.54221294514478
  H   -1.29485169223884     -0.15011411633922      0.25315253686915
  N   -4.72290211692583     -0.60766096500218      0.70196645952381
  H   -0.18805605810692      4.85591575001021      1.46722623459034
