16
Coordinates from ORCA-job 276optt
  C   -0.84458403461109      3.13972449056623      1.09696236207716
  C   -2.15295552004158      3.46296917756376      1.40687647627530
  C   -0.52590628502761      1.84585563302207      0.68128771023610
  C   -1.50729852991277      0.85916840441616      0.56990001812026
  C   -2.82638203754585      1.20429981390624      0.88827820792665
  C   -3.14187744631596      2.49130811882696      1.30093371868256
  C   0.81752800130150      1.48093001255348      0.35378770314674
  N   1.86604701136263      1.10593791261640      0.07257920310093
  C   -3.85677333941879      0.21329653608587      0.78548370903632
  H   -0.05659927245235      3.87876540514446      1.17175816024473
  O   -2.53919341309640      4.69718836887114      1.81777814478121
  H   -4.16395838971486      2.74709253369960      1.54434579167130
  O   -1.25494261939308     -0.39702130193853      0.17655198821569
  N   -4.69701808225030     -0.56332701788492      0.71040470082407
  H   -0.31618467096090     -0.52327346076974     -0.01805459393369
  H   -1.78622137192258      5.29498537332080      1.85743669959464
