22
Coordinates from ORCA-job 285optt
  C   -1.53481044932244      3.28385667697273      1.28934447407651
  C   -2.91559468607500      3.43276627617780      1.45786629115136
  C   -1.02040138921864      2.05235878759135      0.84819090112991
  C   -1.91668027041008      1.01058102506717      0.57839437020800
  C   -3.27656772436153      1.15774087272649      0.73906820929594
  C   -3.78625837568227      2.39444455558798      1.19192104770016
  C   0.36746976578352      1.74953671877854      0.67139866414817
  N   1.46128334501512      1.43628768469959      0.51685673579400
  C   -4.16656798314010      0.07429362399000      0.45711588706356
  O   -0.83941312883708      4.38525811195498      1.59115147547109
  H   -3.26454121873792      4.39518350224531      1.79913720005624
  O   -5.11262989654226      2.46679628357087      1.32839421322419
  H   -1.52285406220660      0.06235019231106      0.23886797382605
  N   -4.86387133863456     -0.80705604795781      0.22586886814336
  C   0.55857627645727      4.48897015027811      1.34962481643765
  H   0.81012421109763      5.51992132507387      1.58058870739302
  H   0.79085178975259      4.27820978245148      0.30601631802155
  H   1.12138490455411      3.81832494490242      1.99668326571831
  C   -5.68023331202346      3.68223787495774      1.78367632637592
  H   -5.30919006583414      3.93375906772669      2.77935046482365
  H   -6.75158725597820      3.51298035379595      1.82325100838582
  H   -5.46085913565587      4.49613823709752      1.08951278155550
