33
Coordinates from ORCA-job 28optt
  C   -2.18407952695579     -0.09693461621631      0.03123848867454
  C   -2.07158866310320     -1.47265833724525      0.09171171838097
  C   -1.02762630547980      0.67223541806175     -0.06670222117523
  C   0.21719781292740      0.05370119608795     -0.11585796864937
  C   0.33549499998181     -1.33232919074533     -0.06294341733243
  C   -0.82994003338311     -2.11084172860854      0.05575756024889
  H   1.10765298946589      0.65946243647010     -0.22402132334406
  C   1.69568209667582     -1.92138534608176     -0.16935754157635
  H   -3.15190047063816      0.38376423602042      0.06977319773961
  C   -1.11691757802510      2.10373163531281     -0.12685199592954
  H   -2.96340941925141     -2.07684752744106      0.19929927527129
  C   -0.79891396902144     -3.59040708079599      0.18010621317140
  N   -1.18923639695096      3.24818258176758     -0.17360886602433
  C   -1.62607335449591     -4.37565502176087     -0.62102626726950
  C   0.02397716568169     -4.21671461738306      1.11601959456876
  C   -1.62280337080845     -5.75844645746858     -0.49974232603079
  C   0.01983281287749     -5.59637749786337      1.24422918333692
  C   -0.79981670520320     -6.37210213305750      0.43347117117938
  H   0.66822298857693     -3.61614589787200      1.74592279516603
  H   0.65909621356326     -6.06814400569908      1.97899301832540
  H   -2.26204598587303     -3.89785583622347     -1.35670196136719
  H   -2.26226626982528     -6.35548390738078     -1.13681156517270
  H   -0.79715352429422     -7.44982756617484      0.53057793142312
  C   1.97262533297575     -2.93096846883158     -1.09080389168388
  C   2.72849118744612     -1.44178298387044      0.63388527876239
  C   4.00929452552595     -1.96628623643625      0.52765351534603
  C   3.25271988082599     -3.44942296196587     -1.20237635456085
  C   4.27437297988891     -2.97180474425759     -0.39055953698030
  H   2.52083789339718     -0.66319899742416      1.35829901002599
  H   4.79878628467635     -1.58937891200819      1.16471074523573
  H   1.17835360051200     -3.30877593559954     -1.72247135655683
  H   3.45412541574864     -4.22848378563407     -1.92599479904289
  H   5.27251739256187     -3.38088770967502     -0.47581730416018
