20
Coordinates from ORCA-job 290optt
  C   -1.16925119036212      3.13273490829424      1.04759304909818
  C   -2.44866737044816      3.49797557537713      1.44695584612875
  C   -0.89567818412383      1.82618852564152      0.66097444810204
  C   -1.90429439063385      0.85337700542713      0.66788684911037
  C   -3.18410646259159      1.23577033920853      1.07485010941723
  C   -3.45381821328704      2.54752529670769      1.46829486080992
  C   0.44364789984932      1.53525121544301      0.22457995864243
  N   1.52141622159858      1.40949390678924     -0.14363784711136
  C   -4.27257037936708      0.29833559457085      1.10357841183343
  H   -0.38506384019552      3.87830970698451      1.04584746873929
  C   -2.65318542547360      4.92658249530236      1.87681919748385
  H   -4.45258838614798      2.77993585156563      1.81697065906201
  C   -1.53150362930018     -0.57225669071659      0.32050392369746
  N   -5.16077441495087     -0.42745924075962      1.08252816995894
  O   -0.49686853202577     -1.02848194195423      0.69093167297693
  O   -2.38400530611620     -1.28696655192811     -0.41786681091602
  H   -3.20648932275250     -0.82668324914616     -0.62584513722431
  O   -1.74649338531839      5.60877407935391      2.23881324958150
  O   -3.90793903163450      5.40216274043773      1.84029576338178
  H   -4.51335665671870      4.80462043340117      1.38818615722752
