22
Coordinates from ORCA-job 302optt
  C   -0.54855581709930      0.71452919939404      0.74583762139897
  C   -1.89476082017796      0.59937163137592      0.39224598631821
  C   -0.18076524091501      1.05494047836791      2.04036134282795
  C   -1.14037486627662      1.28678998155128      3.01942097114190
  C   -2.47601724931787      1.17234135257733      2.65846120129274
  C   -2.86577511925385      0.83585991922491      1.36384249045150
  C   1.21404388139252      1.16540813419215      2.36714366110479
  N   2.32808472352166      1.25462317660501      2.62406249962387
  C   -3.49515743939267      1.40980930769984      3.64434068822182
  H   -3.91342506600175      0.76342972079270      1.12913330816359
  N   -2.16277233298100      0.26184876528070     -0.93425679537846
  N   -4.31023751063118      1.59655224883785      4.42918470783064
  C   -3.32508129084494     -0.03691248104995     -1.61023143802469
  O   -3.32300937857170     -0.32545171029824     -2.77701536744507
  O   -4.41501141529306      0.02641048288272     -0.84553919891438
  C   -5.63657923978241     -0.28766201403549     -1.52428116171552
  H   -5.59525747800594     -1.30150093285609     -1.91649649993944
  H   -5.79829100258725      0.41009995109599     -2.34306768869722
  H   -6.41718174556346     -0.19414950828279     -0.77633171061876
  H   -0.85532263806005      1.54931003604796      4.02751250645427
  H   0.22291148470481      0.53695834345982      0.00710433239829
  H   -1.36268443886291      0.18057391713642     -1.54288145649502
