30
Coordinates from ORCA-job 304optt
  C   -2.72638060407688      0.54435146091501      0.59674222172220
  C   -3.87387222378415      1.31873044341793      0.41425357895454
  C   -2.04767977305960      0.64131032236757      1.83002687493128
  C   -2.47281808908746      1.50011422407302      2.85166255628194
  C   -3.60020926207152      2.29636555129531      2.62332922193541
  C   -4.28495624068233      2.17309562838795      1.41587794647160
  C   -0.88598996983254     -0.15995054843727      2.05056813522883
  N   0.05565243627373     -0.80327724673260      2.18970303543749
  C   -4.01721100789673      3.29173092543656      3.56234087322497
  H   -5.15639173926667      2.79370958223981      1.25554277649131
  N   -2.19451936022606     -0.32192120731819     -0.34350332336805
  N   -4.35581348686882      4.11559266087978      4.28632592046032
  C   -2.61416553038892     -0.71200001432447     -1.60221439601825
  O   -1.96995996696815     -1.47399832754992     -2.26917028172562
  O   -3.77331950994509     -0.17126358782880     -1.97347771972754
  C   -4.22535056507658     -0.57443764918674     -3.27161534861127
  H   -4.37077301009778     -1.65224262595019     -3.29730706161925
  H   -3.49494315932348     -0.29043402914500     -4.02606525668399
  H   -5.16483490130102     -0.05398390865370     -3.42695359517589
  N   -1.72515214686946      1.57705345580445      4.02082258413766
  C   -2.19437094715253      1.59551098987797      5.32640339013708
  H   -0.72646530886119      1.43746009087605      3.96150788312389
  O   -1.47444967216510      1.77881026586179      6.26651698120476
  O   -3.50054859183582      1.35109087276963      5.38009960955250
  C   -4.10709291363779      1.59069919036909      6.65350519961009
  H   -5.15091600790113      1.31938543849903      6.53449541390457
  H   -4.01522267531765      2.64547346217604      6.90753589181804
  H   -3.62941559221430      0.98062718578774      7.41676457762672
  H   -4.42540451737754      1.26658192985174     -0.50658325650876
  H   -1.32952566298732     -0.78665453575964     -0.09836443281665
