33
Coordinates from ORCA-job 30optt
  C   -4.64073446376472     -0.39755326704240      0.03156982570752
  C   -4.46515340032459     -1.78563480756298     -0.08900623091079
  C   -3.49553897747201      0.41356403191196      0.06961304936886
  C   -2.21212412860686     -0.12523155990251     -0.00096989677591
  C   -2.05393540187587     -1.49409291188870     -0.10661150505235
  C   -3.17341066276389     -2.30927694639446     -0.14913861196143
  H   -1.35760751316017      0.53635239079030      0.03642607115474
  H   -1.06339638962388     -1.92452895582282     -0.16360612122388
  C   -5.98853800172669      0.21568722286635      0.15571935500778
  C   -3.60641832640097      1.83921815554535      0.22540395892187
  C   -5.60865235326408     -2.73186748689562     -0.17926475837075
  H   -3.05544308970738     -3.38026405065599     -0.25789470565327
  N   -3.64441692373140      2.97953168439822      0.34931028835259
  C   -6.63709830547179     -2.54121596781187     -1.10165114791303
  C   -5.64227534506327     -3.85757535099253      0.64137516840538
  C   -7.67370866579946     -3.45584913179239     -1.19802386672389
  C   -6.68477612210211     -4.76957834052303      0.55101088280139
  C   -7.70310951481391     -4.57104182179338     -0.36977563670347
  H   -8.46182695654027     -3.29755553550531     -1.92254052121548
  H   -8.51620420676518     -5.28127134301894     -0.44311767556047
  H   -6.62177990757508     -1.67140817640065     -1.74621710703837
  H   -4.85248896123443     -4.00843141812149      1.36768929785454
  H   -6.70137590475598     -5.63337464729923      1.20275906844581
  C   -6.39996857798988      1.21037035432700     -0.72773910977977
  C   -6.85774444412624     -0.19837335008706      1.16365305133797
  C   -8.11451480635873      0.37225940266715      1.28472594702640
  C   -7.66198685263488      1.77509563385941     -0.61199770569441
  C   -8.52142989416170      1.35743646426927      0.39391229798867
  H   -8.77792355608304      0.04658261917235      2.07515549339420
  H   -9.50417317103716      1.80080031607737      0.48699427089715
  H   -5.73049382495698      1.54022138863953     -1.51267562196400
  H   -7.97068515397877      2.54478648618966     -1.30696000281211
  H   -6.54405619612826     -0.97355108120249      1.85187219868855
