23
Coordinates from ORCA-job 318optt
  C   -0.56747260318514      0.02766621236648     -0.00870958895630
  C   -0.94579453777919     -0.17451245086930     -1.35202261824863
  C   -1.51196623488536      0.24287459351440      0.95694639742772
  C   -2.88494088297665      0.26511563908837      0.61998731134702
  C   -3.26618454355922      0.06171731428032     -0.72696875284949
  C   -2.26733370971231     -0.15783089494821     -1.70178795875250
  H   0.48075339314074      0.01229234840812      0.25920137843913
  H   -0.18582469933782     -0.34233708429007     -2.10361875804154
  H   -1.21863575040267      0.39786682556817      1.98759578531957
  H   -2.56940442442503     -0.31176576042186     -2.73061568182539
  C   -3.90985974286832      0.48686436959093      1.58873807529377
  C   -4.64451063320927      0.08684912158705     -1.05793438831994
  C   -5.25139476688436      0.50868047346176      1.25077062187149
  C   -5.59657620754491      0.30180177399958     -0.11016157203786
  C   -3.51011914361525      0.68961029390959      2.95209368472204
  C   -6.27413669620951      0.74113692352085      2.27895675792893
  H   -4.93137231778652     -0.06809391740814     -2.09124015068952
  H   -6.63816976946588      0.31733440167817     -0.39772771529754
  N   -3.17168339543000      0.84970390338205      4.03776658243833
  C   -7.58797610627250      0.76355807804248      2.08136747825462
  H   -5.89967892800571      0.90598352198060      3.28317855533267
  H   -8.04333507077542      0.60610167016392      1.11256144487849
  H   -8.26114322880964      0.94392264339479      2.90810311176493
