33
Coordinates from ORCA-job 31optt
  C   -3.51014496740535      0.77576591282430     -0.24744540979034
  C   -3.24016397938349     -0.52893419152509     -0.65068744159774
  C   -2.42623847970000      1.64603560349364     -0.03753663327475
  C   -1.10012140477620      1.22622113053008     -0.24122341411484
  C   -0.87888039863496     -0.08758612726616     -0.64491114992519
  C   -1.93758060615208     -0.95788029061255     -0.84473609343982
  C   0.06073639099651      2.12309859304968     -0.02551010083288
  H   0.13769768249552     -0.41523287939542     -0.81911192017119
  C   -4.91739942405865      1.19286747205168     -0.03778576454662
  C   -2.67480112382645      2.96627855398406      0.47643544129196
  H   -4.06910017158578     -1.20137189055897     -0.82921262835314
  H   -1.74702849702121     -1.97256461707810     -1.16937457461827
  N   -2.87342260688702      4.01808129673668      0.89084484933767
  C   -5.41769966446719      2.36867257410199     -0.59465767000863
  C   -5.77435528837446      0.37953972775407      0.70354161153847
  C   -7.10079799488246      0.73712453623425      0.89075354748032
  C   -6.74570344291097      2.72246946995998     -0.41231700582455
  C   -7.58974031791992      1.91005209032726      0.33240413842161
  H   -7.75080992646291      0.10235025078907      1.47863936406334
  H   -8.62452088588198      2.19094114999199      0.47822696938635
  H   -4.76793398547027      3.00493940863914     -1.18138916723284
  H   -7.12110560135771      3.63630821178568     -0.85352260506577
  H   -5.38932744572023     -0.52833098679239      1.15161449897692
  C   0.10406567225216      3.40198236185303     -0.57855663282687
  C   1.15169246429323      1.67214593683124      0.71751124080609
  C   2.25884804326052      2.48414363558781      0.91043088666093
  C   1.21406144547833      4.21101792163298     -0.39059227578723
  C   2.29263433147090      3.75619054511927      0.35563032535055
  H   1.23532575535678      5.20005457045107     -0.82884466586647
  H   3.15553782393465      4.39161323134390      0.50595345488421
  H   -0.72999350655221      3.76234381851285     -1.16658132160586
  H   1.11958171584528      0.68515529117077      1.16258370879339
  H   3.09266839404781      2.12511768847210      1.49942643789116
