28
Coordinates from ORCA-job 321optt
  C   -0.26303526699730      0.40620529713187     -0.22530230532455
  C   -0.63748944419733      0.08160321729439     -1.55623033167303
  C   -1.18197433939541      0.51420308773315      0.77586024989289
  C   -2.55513410814242      0.29925023342605      0.50802696342514
  C   -2.94989975867286     -0.02230291201871     -0.81237314183885
  C   -1.96303695207880     -0.12160651932475     -1.82558379558223
  H   0.78525217686176      0.57936995139686     -0.00872759263355
  C   0.45488242365282     -0.05000542611266     -2.59554720373374
  H   -0.87448788699773      0.76935194429011      1.78253916248605
  H   -2.29276181606727     -0.36128754084436     -2.82894872363404
  C   -3.56234513684290      0.39671998167519      1.50897671146499
  C   -4.32071632382703     -0.23537669702930     -1.09055230480944
  C   -4.88602343199015      0.18331527117912      1.20888850173273
  C   -5.26591718884635     -0.13672288253503     -0.10681911553287
  C   -3.18550836203370      0.72535494073681      2.85405914189293
  H   -5.63018711958696      0.26350308062989      1.98946889470732
  H   -4.61083874839801     -0.48122188571080     -2.10513800240088
  H   -6.31038181294972     -0.30329050465930     -0.33256821752326
  N   -2.87223463181113      0.99191457946170      3.92589632668171
  C   1.27508383939359     -1.31792830117291     -2.33158228984627
  H   2.10601564709697     -1.38984742038689     -3.03481258738992
  H   0.64455570762623     -2.20117476806413     -2.45302170300368
  H   1.68039609114374     -1.33115933408398     -1.31964856390345
  C   -0.05334009278174     -0.03943190299199     -4.03175090977215
  H   1.11915346289490      0.81075605044967     -2.46364028570124
  H   0.78864488894510     -0.03646349403266     -4.72423883811413
  H   -0.66743460649657      0.83839242580419     -4.23636763025220
  H   -0.64728720950170     -0.93114047224152     -4.24378240961425
