28
Coordinates from ORCA-job 324optt
  C   -0.65261748928287     -0.20371655224550      0.04324261653212
  C   -0.98424330116788     -0.56182916389189     -1.28068067670952
  C   -1.61817969384970      0.23794826547026      0.90473652156702
  C   -2.96111881478420      0.33828545705430      0.47669769684775
  C   -3.30038116055995     -0.01919449057381     -0.84978765109489
  C   -2.27646191554233     -0.47124855054867     -1.71587033185026
  H   0.37400678876440     -0.27940765940072      0.37637675190530
  H   -0.20873623347463     -0.90885678595491     -1.95079269099632
  H   -1.36746504426810      0.51441767858283      1.92145240247726
  H   -2.53735963278407     -0.74385320269920     -2.73133209506459
  C   -4.01202418814883      0.79400363027792      1.32557895858392
  C   -4.64679822450091      0.08341890300380     -1.28253041308151
  C   -5.30256249477192      0.87657216953274      0.87343518244745
  C   -5.64474816028324      0.51759076395816     -0.45223962809761
  C   -3.71013302137727      1.17470661795130      2.67615414410297
  H   -6.07592298069837      1.23131148955851      1.54471273831890
  H   -4.86786188808068     -0.19062281879815     -2.30696401429648
  C   -7.09954925721506      0.60499072379007     -0.86239528042397
  N   -3.45545900225102      1.47765629030916      3.75378908528918
  C   -7.31586470488327      0.57268911517203     -2.37016609284578
  H   -6.72885429525963      1.33828091598994     -2.87896115650269
  H   -8.36846476195293      0.74163878100959     -2.59775805066939
  H   -7.04489182503360     -0.40056635803881     -2.78495507980296
  C   -7.90040957534055     -0.51267073813059     -0.18488857101534
  H   -7.47568957494839      1.56205187334880     -0.48606394328208
  H   -8.96101017443934     -0.42252271252755     -0.42351446152469
  H   -7.79029398387794     -0.48634487761437      0.89952919647073
  H   -7.55097538998761     -1.48619876458523     -0.53488515728452
