13
Coordinates from ORCA-job 34optt
  C   -2.99558408141593      0.53681970018799     -0.00000027337138
  C   -2.80544823562609     -0.82929773699232     -0.00000006590911
  C   -1.86721618655664      1.35401479738695     -0.00000033742602
  C   -0.58607362950061      0.80556045069942     -0.00000028666404
  C   -0.43611517638161     -0.57232266952590     -0.00000010169824
  C   -1.54743132603544     -1.40337403342204      0.00000028475857
  H   0.27499467190616      1.45857159955025     -0.00000030201891
  H   0.55493436231345     -1.00506875488991     -0.00000000897356
  H   -3.99424944211874      0.94990871502842     -0.00000027185648
  C   -2.03161578497830      2.78121219131218      0.00000021449615
  F   -3.87967520401058     -1.62514062428034     -0.00000007125969
  H   -1.45544876375750     -2.48078492701731      0.00000056721378
  N   -2.15978120383815      3.92116129196261      0.00000065270893
