37
Coordinates from ORCA-job 355optt
  C   -0.46236026325629      0.06056906679945     -0.01031113141294
  C   -0.70368365774065      0.69311108333511     -1.25709804388327
  C   -1.53432385303033     -0.33924948778151      0.74274022868482
  C   -2.86127823554645     -0.13335558415630      0.29989437211428
  C   -3.09264776618017      0.49715114505047     -0.94445673803853
  C   -1.97301719125721      0.90488403305049     -1.70976281802826
  C   0.95529959728220     -0.16091809683271      0.46519864115868
  H   0.13808925645990      1.01336258720490     -1.85948519294902
  H   -1.37308591944941     -0.82445146253977      1.69910982338138
  H   -2.14349922256477      1.38887016501750     -2.66401957474013
  C   -4.00027278153122     -0.53613256957223      1.05498179456643
  C   -4.42024887203738      0.70204043670922     -1.38905359059722
  C   -5.27452065514174     -0.32183319029274      0.59280730075826
  C   -5.50531352197829      0.30805770909212     -0.65113767660872
  C   -3.80999975606289     -1.17873814624669      2.32432580941962
  H   -6.11206389630183     -0.64455162786734      1.19890814620073
  H   -4.57135346188534      1.18778305755693     -2.34755409324132
  C   -6.92036878113382      0.53030337093824     -1.13512314834078
  N   -3.64536052826969     -1.69414918812298      3.33698324966543
  C   -7.65494076683625     -0.79716965720320     -1.33136057838609
  H   -8.65654606890508     -0.62313765703024     -1.72701228444523
  H   -7.75996649785485     -1.32697386265823     -0.38234462208166
  H   -7.11772715343491     -1.44728683515003     -2.02220415013176
  C   -7.69570014904710      1.44459670651575     -0.18457366916595
  H   -6.85222673494544      1.02834799029413     -2.10579249534493
  H   -8.69700948009882      1.63588203153657     -0.57291808393955
  H   -7.18688535562699      2.39974749896839     -0.05302879140549
  H   -7.80367890930070      0.98169526223223      0.79846673287734
  C   1.68970130904686      1.16745827066600      0.65684240863716
  H   1.78773802635559      1.69815251417047     -0.29245134517555
  H   2.69389272594714      0.99392001427138      1.04633924493411
  H   1.15630041945688      1.81572167276246      1.35237305709867
  C   1.72492786298270     -1.07367293770256     -0.49161917455954
  H   0.89546169388565     -0.65933765351446      1.43587374951940
  H   2.72847751976843     -1.26553317927094     -0.10924119826098
  H   1.82633623507830     -0.60954170881404     -1.47478803162035
  H   1.21529483315420     -2.02879177141585     -0.62009812665906
