29
Coordinates from ORCA-job 359optt
  C   -0.32436661670772      0.82986194490072     -0.35781120832243
  C   -0.84424973366167      0.74923924484111     -1.66375027016131
  C   -1.08918552654935      0.55332601718956      0.74818852662791
  C   -2.46485433517975      0.20857277237417      0.57884614667279
  C   -2.97671691946827      0.09579924808598     -0.74497959763035
  C   -2.13993149135290      0.37179693600244     -1.85211754695485
  H   0.71582633980137      1.09296988630715     -0.21135205216917
  H   -0.20610137257001      0.96909915347657     -2.50935504108899
  C   -0.43120164736429      0.58529832469634      2.08168322973893
  H   -2.55477582130637      0.28159818617039     -2.84845954382747
  C   -3.38745555063579     -0.01228688882946      1.65103894100660
  C   -4.32372163016477     -0.28217316644386     -0.95860971378331
  C   -4.69246524597339     -0.37366267851234      1.40158981707749
  C   -5.16428277414857     -0.52525103598577      0.08792213676359
  C   -3.06686777382484      0.17771026751671      3.04101177703020
  H   -5.35926353469697     -0.52673074482149      2.23937840554731
  H   -4.67541298207158     -0.36982967003923     -1.97954355907707
  H   -6.19216169974302     -0.81487821805172     -0.08226365138669
  N   -2.93835508339947      0.31812256751469      4.17334763387384
  C   -0.11305404165505     -0.60607020443123      2.72883915503553
  C   -0.09996937529659      1.79635359184347      2.68109968957484
  C   0.50741119637797     -0.58594546785379      3.96775926998613
  C   0.51474298241989      1.81610307372787      3.92463577393112
  C   0.81522726093217      0.62566315041114      4.57128051762809
  H   0.74286768703575     -1.51654031844170      4.46724867940575
  H   1.28733959651262      0.64181531501248      5.54480163287819
  H   -0.34753413474899      2.72325696355557      2.17831567140087
  H   0.75291101749883      2.76262862121382      4.39208025766680
  H   -0.36800879005911     -1.54954687142961      2.26077492255557
