13
Coordinates from ORCA-job 35optt
  C   -3.00817139121462      0.53798785205140     -0.00000098926770
  C   -2.85618573874963     -0.83733680192726     -0.00000043400282
  C   -1.88435818940376      1.36372539967883     -0.00000058929560
  C   -0.60433094762485      0.81006156919913     -0.00000090237969
  C   -0.44519448729134     -0.56441673432859     -0.00000054470340
  C   -1.57590412599094     -1.36081245733307      0.00000060104702
  H   0.25965321100714      1.46012531931232     -0.00000104869592
  H   0.53305525310956     -1.02420807639972     -0.00000038855128
  H   -3.99566929317830      0.97847764278184     -0.00000116346267
  C   -2.04534546048219      2.78966879494308      0.00000090398472
  H   -3.70696592696772     -1.50401255661120     -0.00000028650843
  F   -1.42555524329117     -2.68795616283321      0.00000264358411
  N   -2.17375765992219      3.92995621146644      0.00000219825165
