29
Coordinates from ORCA-job 361optt
  C   -0.59398950866361     -0.30249680526066     -0.05319758501443
  C   -1.02221775659818     -0.26713536176753     -1.40610376487658
  C   -1.46764770610506     -0.09835140207320      0.97482951467460
  C   -2.83313530459049      0.16025805524897      0.71378638245242
  C   -3.27759314399968      0.20216122684912     -0.63041361013991
  C   -2.34491983776226     -0.01628896667765     -1.67017156029610
  H   0.44430253338980     -0.52086288128179      0.16200078480485
  C   -0.05179586928870     -0.49549967804139     -2.50063739845378
  H   -1.12628686302627     -0.14122448183200      2.00174845058780
  H   -2.69192758883871      0.04121649193754     -2.69538899110371
  C   -3.78887346081284      0.38043930154748      1.74635895571577
  C   -4.64191897088224      0.46862925493614     -0.90080570222284
  C   -5.10654208009665      0.63237287052621      1.45301145421509
  C   -5.53440293866119      0.67749560409836      0.11284510841974
  C   -3.36354515212902      0.33936853568363      3.11641613254233
  H   -5.81021525986096      0.79631264762199      2.25772785439166
  H   -4.96798195456361      0.50266888450598     -1.93342498164846
  H   -6.57418515308314      0.87858818497078     -0.10611703142174
  N   -3.01064604261708      0.30496696950978      4.20828455574413
  C   1.23877856258274      0.02949256565320     -2.42820637638027
  C   -0.40918220737879     -1.23674103579377     -3.62725825881597
  C   2.14493008033200     -0.17451357727921     -3.45792580507777
  C   0.49744472231533     -1.44368022098152     -4.65566437802949
  C   1.77744210105077     -0.91207083962968     -4.57511511471978
  H   3.13862554077083      0.24886086775234     -3.39012352418463
  H   2.48529146415748     -1.07375597343889     -5.37737717873604
  H   1.52658060737399      0.62306857995734     -1.56923741617540
  H   -1.39781939680534     -1.67520322516671     -3.68382268850786
  H   0.20661058379089     -2.02930559157487     -5.51811782774359
