39
Coordinates from ORCA-job 367optt
  C   -1.38809953694196     -0.45398958308517     -0.11975930344724
  C   -1.86970179789400     -0.21990873311491     -1.43328726070772
  C   -2.18706804694860     -0.28565845906815      0.97414562509941
  C   -3.52979398851431      0.13450530274688      0.82554753376608
  C   -4.02560320454120      0.36717659214315     -0.47887571741850
  C   -3.17167741573691      0.18544229631018     -1.58916060307194
  H   -0.36957490907731     -0.79661179952604      0.01169730423033
  C   -0.97890762588274     -0.41094743604486     -2.60014978610610
  H   -1.80127284573619     -0.48096311222390      1.96668769817583
  H   -3.56116346662378      0.39465842847351     -2.57875245912045
  C   -4.40571222119585      0.32396559339107      1.93652781424181
  C   -5.37033034106109      0.78160699192199     -0.63374059612377
  C   -5.71524077233046      0.73338521668322      1.76697209295173
  C   -6.18264186828956      0.95368339240346      0.44713520770732
  C   -3.88578620042267      0.03575555803395      3.24337474189255
  C   -6.64676599842634      0.94476392069846      2.89874812551485
  H   -5.74581495055189      0.96772734694824     -1.63288662949546
  H   -7.20334789800431      1.28763499748928      0.31402015301873
  N   -3.42278787595566     -0.21024978743046      4.26493453519652
  C   -6.27137701814157      1.68037242629479      4.02192566919463
  C   -7.93986705340849      0.42394443193947      2.83460565387722
  C   -8.83324522504974      0.62259125449812      3.87557597172671
  C   -7.16849615272055      1.88498192835280      5.05918815590938
  C   -8.44939775719988      1.35503447340972      4.99084266311642
  H   -6.86469638448417      2.46187143427473      5.92267846638064
  H   -9.14636435997645      1.51239671388218      5.80350092459138
  H   -5.27810822721655      2.10601212377511      4.07882101021034
  H   -8.23700828839046     -0.15855279859699      1.97099648251737
  H   -9.82825211987324      0.20105540120530      3.81789982702080
  C   0.36544740583796     -0.04250845617607     -2.53731126438984
  C   -1.46495216504729     -0.96077469025934     -3.78688440635822
  C   1.19895501590016     -0.21354672516997     -3.63234384135222
  C   -0.63169841984420     -1.13365884629905     -4.88151814333047
  C   0.70344475752541     -0.75979868647456     -4.80839314851121
  H   2.23681514353393      0.08658306302148     -3.56848146844916
  H   1.35444248888687     -0.89616873159425     -5.66187835001250
  H   0.75535917970918      0.40406528026459     -1.63101419835065
  H   -2.49854613355385     -1.27929605535745     -3.84165338240046
  H   -1.02361372235207     -1.57075026774049     -5.79075509769409
