39
Coordinates from ORCA-job 370optt
  C   -1.74895795474353      0.12094446715296      0.23323407691782
  C   -2.18159717686858      0.05414500072005     -1.10882532420033
  C   -2.65056891850352      0.26909882930408      1.25017460287052
  C   -4.03398823658847      0.35808898816123      0.96853562520184
  C   -4.47038767228987      0.28680175068801     -0.37395178866423
  C   -3.51232318141372      0.13621777999145     -1.40488552620695
  H   -0.69248433142878      0.05432997636151      0.45732487239789
  H   -1.45362047233757     -0.06181631171954     -1.90082511549448
  H   -2.31681287504357      0.31953900911017      2.27877392738657
  H   -3.85614578200523      0.08692480264430     -2.43091053267995
  C   -5.02264638090515      0.50515863087132      1.98596546721697
  C   -5.85221042727406      0.37806822865697     -0.64891368156200
  C   -6.37270892653341      0.58920386636747      1.70200103934157
  C   -6.79318391285264      0.53152774549223      0.33723207414784
  C   -4.56580372190717      0.51766958735600      3.34831886362476
  C   -7.36419263675238      0.69158861129413      2.80390412732874
  H   -6.17463419800972      0.35351681257570     -1.68388160597422
  C   -8.22168067544098      0.66042949547669     -0.05426984378482
  N   -4.14422792117028      0.52028445618198      4.41623331060013
  C   -7.29324260705580      1.72637809007135      3.73277209630320
  C   -8.38154008855411     -0.25466968701758      2.91795267075150
  C   -9.30802474520755     -0.16828724963510      3.94439750100889
  C   -8.22802795175030      1.81885557150589      4.75400259932585
  C   -9.23609964607941      0.87184209922601      4.86244116054999
  H   -8.16431334188528      2.63002447031740      5.46721803682570
  H   -9.96289279672271      0.94191612407581      5.66110106724046
  H   -6.50607443782438      2.46567787134484      3.65091225453578
  H   -8.44483435278941     -1.05852985622881      2.19491220176961
  H   -10.08868510234427     -0.91298817240894      4.02702314683413
  C   -8.79044189181329     -0.26701583993645     -0.92506578844209
  C   -9.00486574973243      1.72038143026240      0.40322499978274
  C   -10.32388265616112      1.84706166373266     -0.00187609450537
  C   -10.11402273276837     -0.14414407744202     -1.32600155608604
  C   -10.88435342191469      0.91339896960606     -0.86496378362741
  H   -10.54339820385042     -0.87867932218928     -1.99491525738256
  H   -11.91654906136702      1.01048241555425     -1.17496497438182
  H   -8.19342238503260     -1.10067170675273     -1.27514592090915
  H   -8.57556004597545      2.44871625717284      1.07961002331337
  H   -10.91703337910234      2.67751922205464      0.35820104862551
