39
Coordinates from ORCA-job 372optt
  C   -1.42844847701237      0.20318156123853      0.13586780211791
  C   -1.82809168087157      0.34364817784844     -1.21929047795217
  C   -2.39585854292649      0.14311930512340      1.10938155742709
  C   -3.76611480313858      0.22043857906594      0.78164311802840
  C   -4.15711907681937      0.35221110176680     -0.57266407926762
  C   -3.14570047373003      0.41673029348605     -1.56183816518016
  C   0.00863247144917      0.12210573354115      0.48169557318601
  H   -1.06710947408046      0.41713700786016     -1.98560301048272
  H   -2.11447225133475      0.01210538342169      2.14753618681464
  H   -3.43774988725287      0.53398939202550     -2.59836787231800
  C   -4.79807331505534      0.16469273316783      1.76301698773976
  C   -5.52831951410979      0.42465117661856     -0.90219550791327
  C   -6.12171709884067      0.23640481335328      1.41108711608194
  C   -6.50995169255133      0.36679878063691      0.05725658372014
  C   -4.44360503040438      0.02959473039723      3.14702778183521
  H   -5.80156774099888      0.55019351853749     -1.94377159912654
  C   -7.94481163581382      0.44189349806792     -0.29929859572060
  N   -4.14489414177295     -0.07158754204419      4.25089059964296
  C   -8.42868435638596     -0.19587126995370     -1.44190116328838
  C   -8.83984733974447      1.15576849322492      0.49793941261633
  C   -10.18192844188265      1.23512497189133      0.15814830302757
  C   -9.77083184745128     -0.11789908956477     -1.78103003148800
  C   -10.65187979567167      0.59886096557631     -0.98266001333273
  H   -10.13121767353046     -0.62656986641502     -2.66568426092053
  H   -11.69948175527539      0.65904708996403     -1.24657045219270
  H   -7.75138868050387     -0.77851475021904     -2.05399809216952
  H   -8.47804232254352      1.67390294446014      1.37758735474690
  H   -10.86069207595242      1.80119769891666      0.78261399468324
  H   -6.87878081192621      0.17028884750427      2.18152830109782
  C   0.49990979845364      0.72828722358826      1.63861574685065
  C   0.90015573354516     -0.56740052768461     -0.34112626647438
  C   2.24479055588700     -0.65346505239895     -0.01357648578846
  C   1.84470325886217      0.64440270079759      1.96499651344738
  C   2.72188628847118     -0.04714575030873      1.14046363988360
  H   3.77138646889669     -0.11272552574812      1.39558602115648
  H   2.91999773279876     -1.20187419816013     -0.65749467022910
  H   -0.17409154480443      1.28784928073103      2.27510687824912
  H   2.20946766170500      1.12702403986149      2.86230468259938
  H   0.53291151231732     -1.06338647017564     -1.23105341110764
