19
Coordinates from ORCA-job 376optt
  C   -1.71616966270040      0.10396564038034      0.16739971823002
  C   -2.17610017539923      0.05411773816131     -1.16336274389092
  C   -2.61400571410419      0.25403534974888      1.17930421543127
  C   -4.00639452170267      0.36499806166139      0.95862587066892
  C   -4.45005602559817      0.31108368199303     -0.38940103256637
  C   -3.50944938085430      0.15462466596266     -1.43567105202949
  H   -0.66507068700562      0.02561800045203      0.40818178838826
  H   -1.46055117860675     -0.06481406914845     -1.96563523934616
  F   -2.16615819181088      0.29815552977888      2.43610564784202
  H   -3.87068593039910      0.11652864730646     -2.45527843922841
  C   -4.97557712694223      0.52535072203025      1.99172105273001
  C   -5.83480339452035      0.41492985791872     -0.66364117676687
  C   -6.31118020487402      0.62242022735586      1.67942263299816
  C   -6.74424186712326      0.56615554582045      0.34292301477479
  C   -4.62869433301061      0.59539521713555      3.38443950258265
  H   -6.15892237049392      0.37120688500531     -1.69614124982909
  N   -4.43847685703872      0.65974034345114      4.51400277190124
  H   -7.02820063669464      0.74338863319795      2.47991027184617
  H   -7.80006174112090      0.64409932178822      0.12252444626379
