19
Coordinates from ORCA-job 378optt
  C   -1.74069136262680      0.11207967664257      0.24379218389625
  C   -2.19889453747824      0.06048114317076     -1.08354138887793
  C   -2.64713739117822      0.26372088268274      1.25276984216712
  C   -4.02954795562844      0.36790159502617      0.96840319092186
  C   -4.46877891962172      0.31300411315448     -0.37833881738496
  C   -3.51469019181522      0.15520543059119     -1.41139004367198
  H   -0.67950351686672      0.03052933183144      0.43480721758544
  F   -1.28281456814618     -0.08808743970333     -2.04820714701561
  H   -2.31523472377260      0.30612851600452      2.28241467306487
  H   -3.82288322133372      0.11029678079494     -2.44752144579904
  C   -5.00911551348914      0.52776670280057      1.99008401176786
  C   -5.85279556840720      0.41730766118919     -0.65964655372529
  C   -6.34409201411807      0.62634299316311      1.68675193157862
  C   -6.76613531375655      0.56968708762469      0.34526152811896
  C   -4.58676956414429      0.58694191186482      3.36034538006551
  H   -6.17674117423267      0.37372295708056     -1.69225456459014
  N   -4.23301202257756      0.63284192871291      4.45137849504601
  H   -7.06556843429307      0.74702719197278      2.48307426496036
  H   -7.82039400651354      0.64812153539587      0.11726724189207
