13
Coordinates from ORCA-job 37optt
  C   -2.98536738582394      0.51031928765243      0.00000035361967
  C   -2.84638323213044     -0.86361095137365      0.00000007914754
  C   -1.87978375276798      1.35328674498680      0.00000039457035
  C   -0.60003532586642      0.79756244094188      0.00000034792380
  C   -0.47540212029825     -0.57438923063390      0.00000005232644
  C   -1.57502480385438     -1.41502426811730     -0.00000001000842
  H   0.27752643586623      1.42814131474880      0.00000028493111
  F   0.74977083032787     -1.11072114585979     -0.00000028744119
  F   -4.20497611132898      1.04409851784568      0.00000012988915
  C   -2.05542165397335      2.77501711710373     -0.00000010706166
  H   -3.73221385978145     -1.48288632860345     -0.00000021570125
  H   -1.42654131429745     -2.48595796805485     -0.00000034923676
  N   -2.17485770607145      3.91543446936363     -0.00000067295877
