19
Coordinates from ORCA-job 382optt
  C   -1.72708430379186      0.10903503109818      0.21690389971949
  C   -2.15832626640626      0.05377141008839     -1.12514394499877
  C   -2.62720765603540      0.26099256611522      1.23523243948812
  C   -4.00778857700880      0.36527596926316      0.95360456575815
  C   -4.44631478550592      0.31038657263413     -0.39228573288412
  C   -3.48826538296373      0.15244728396235     -1.42098251086199
  H   -0.67156432257428      0.03010955955865      0.44157973008112
  H   -1.43152598253058     -0.06655842059913     -1.91726355934604
  H   -2.29499968126988      0.30341803242217      2.26488595248404
  H   -3.83135375188508      0.11138190460502     -2.44758518820618
  C   -4.98312561658240      0.52527316046693      1.98374955833783
  C   -5.83028886834934      0.41421038331241     -0.67745916114012
  C   -6.30719792243202      0.62013618996390      1.64686971264621
  C   -6.75120286970008      0.56637017838442      0.31756705317086
  C   -4.58510954075687      0.58658483288319      3.35586027914102
  H   -6.15263824634746      0.37035615866647     -1.71047816221755
  N   -4.22980413365704      0.63200128988691      4.44611043953876
  F   -7.21996642044262      0.76868790520783      2.60334328514842
  H   -7.81100567176034      0.64714999207983      0.12097134414075
