19
Coordinates from ORCA-job 388optt
  C   -1.71349775150368      0.10875093846925      0.21980197049453
  C   -2.14625761401931      0.05292923095716     -1.12114086942762
  C   -2.61527832354513      0.26042167299969      1.23646081484670
  C   -3.99515697124223      0.36373282800077      0.95328009053324
  C   -4.43484298334425      0.30853895123405     -0.39239239850536
  C   -3.47600601870084      0.15051599985592     -1.41990623994213
  H   -0.65821134435325      0.03080167968171      0.44489788500039
  H   -1.41995387441814     -0.06721653065989     -1.91381830321331
  H   -2.28482660566482      0.30357930300474      2.26662630118257
  H   -3.81635144735230      0.10860916515605     -2.44708176727035
  C   -4.96930032607628      0.52368025696206      1.98478859847550
  C   -5.81763358915053      0.41221882966991     -0.68411745362121
  C   -6.29555225508682      0.62060620787350      1.66474649426678
  C   -6.71622795014009      0.56409645512438      0.32114526681997
  C   -4.57091955147167      0.58441470906587      3.35747491497362
  H   -6.17020058099944      0.37183179210645     -1.70667879296454
  N   -4.21687977673743      0.62945644360650      4.44781005971329
  F   -7.21682441363934      0.76875239251410      2.60242827851364
  F   -8.02085862255441      0.66531967437779      0.08111515012429
