19
Coordinates from ORCA-job 389optt
  C   -1.70259671691417      0.10374623296935      0.17081313914987
  C   -2.16406103916596      0.05300554008733     -1.15913582897788
  C   -2.60175856115826      0.25377311142997      1.18103191461410
  C   -3.99416951743251      0.36369427373668      0.95879542561139
  C   -4.43898564527541      0.30924972242226     -0.38993749772283
  C   -3.49686725942896      0.15242582201373     -1.43484939273894
  H   -0.65158408527743      0.02637035819790      0.41150896856545
  H   -1.44865965295681     -0.06595937976705     -1.96160601907250
  F   -2.15742571178029      0.29939923392655      2.43829670954758
  H   -3.85526986979114      0.11335206463532     -2.45510463022218
  C   -4.96151055261401      0.52380538890169      1.99353832566669
  C   -5.82127058500249      0.41295878529961     -0.67184396821768
  C   -6.29750711428322      0.62217541328444      1.68981963487156
  C   -6.70299012112477      0.56388947296491      0.35070322204154
  C   -4.61365154159092      0.59284976395042      3.38638017859804
  H   -6.17674110423789      0.37294926044593     -1.69293067890890
  N   -4.42103279751668      0.65617266839406      4.51523064305320
  H   -7.03752403240677      0.74343263979242      2.46834517264460
  F   -8.01115409204226      0.66371962731448      0.09639468149689
