19
Coordinates from ORCA-job 391optt
  C   -1.72720416789831      0.11188382826580      0.24716261286118
  C   -2.18651786927195      0.05947547320854     -1.07970410455165
  C   -2.63519702960145      0.26334743784579      1.25421506572322
  C   -4.01723897758838      0.36658688665060      0.96877071943310
  C   -4.45756119262991      0.31124312607587     -0.37894871313553
  C   -3.50223213538183      0.15317135112345     -1.41032173131799
  H   -0.66622920786249      0.03128492718925      0.43872642738191
  F   -1.27184396843133     -0.08895594476094     -2.04392422266908
  H   -2.30484304426127      0.30656950682602      2.28428970135973
  H   -3.80736209865298      0.10731532928166     -2.44704999187755
  C   -4.99486891598622      0.52618803848844      1.99183979433156
  C   -5.83908127496941      0.41526641492197     -0.66750040381518
  C   -6.33052483974099      0.62593045629495      1.69724479247497
  C   -6.72495797106436      0.56722669727253      0.35345922387308
  C   -4.57180977686953      0.58473312088129      3.36213944168528
  H   -6.19505899706513      0.37550126766013     -1.68847791718181
  N   -4.21572365424929      0.62981892691301      4.45205324526509
  H   -7.07482104312068      0.74688540224859      2.47144014039946
  F   -8.03170383535441      0.66754775361305      0.09004591976020
