19
Coordinates from ORCA-job 394optt
  C   -1.71718348141073      0.10138992438450      0.10760376026313
  C   -2.19599592237109      0.04724319605283     -1.21280872351994
  C   -2.57653090115028      0.25616148055031      1.16078694981441
  C   -3.98315130492013      0.36570255944345      0.96470819239603
  C   -4.44653652763684      0.31107356690764     -0.38283507372060
  C   -3.53319956236345      0.15115291508710     -1.45118921423173
  H   -0.65782620634094      0.02212199693573      0.30792255141915
  H   -1.49523574564812     -0.07553082725722     -2.02744360563956
  Cl  -1.87406561912146      0.31526794403167      2.73804384855024
  H   -3.92302027266394      0.11388729901444     -2.46040479459939
  C   -4.97027416183449      0.52428082644082      1.98742618452503
  C   -5.82960520706712      0.41683360905845     -0.66361050569186
  C   -6.30633061042214      0.62264957436711      1.66680839654704
  C   -6.74449298125666      0.57008990221821      0.33485619737135
  C   -4.69973463902930      0.59289229721528      3.39897287309987
  H   -6.14435340349993      0.37208766581005     -1.69896410435995
  N   -4.63510079183650      0.66186676207620      4.54268582321995
  H   -7.02220782803603      0.74136260839146      2.46871849256209
  H   -7.79992483339075      0.65047669927196      0.11416275199475
