19
Coordinates from ORCA-job 397optt
  C   -1.75505215474601      0.11463086540847      0.25841963649390
  C   -2.20162246167985      0.06071015558409     -1.07895303269786
  C   -2.66067966644245      0.26702772766276      1.26792966482075
  C   -4.04318371887999      0.37140608023816      0.98665532130669
  C   -4.48039980041895      0.31643234404106     -0.35936512923107
  C   -3.52512822817268      0.15818312591314     -1.39095612808521
  H   -0.69707501074509      0.03407452474912      0.46582727019343
  Cl  -1.02791620393649     -0.13452522026799     -2.33478064289733
  H   -2.32589524429010      0.30936026851807      2.29688892901866
  H   -3.85021662683093      0.11485916450161     -2.42210575299153
  C   -5.02432519789826      0.53058321795521      2.00644872669094
  C   -5.86323529955756      0.41990342466220     -0.64580601115994
  C   -6.35879307714590      0.62803834187325      1.69887808631051
  C   -6.77916147358193      0.57147010700272      0.35677845258573
  C   -4.60605147914020      0.58983070684886      3.37792596572553
  H   -6.18340568555775      0.37601136403671     -1.67961493167983
  N   -4.25753337748124      0.63602345956216      4.47062330171503
  H   -7.08211555503062      0.74786008818835      2.49376210692491
  H   -7.83299973846399      0.64913025352203      0.12689416695671
