19
Coordinates from ORCA-job 398optt
  C   -1.72616988423250      0.11117774584720      0.27794720144501
  C   -2.14240473592399      0.05612121444002     -1.06706914819586
  C   -2.63637711135006      0.26366043575951      1.28354876677375
  C   -4.01401310354201      0.36735973156222      0.98402797338817
  C   -4.45718118458995      0.31320793934786     -0.36388216937724
  C   -3.46874852812635      0.15540360059622     -1.37255971952141
  H   -0.67174900660097      0.03149201172823      0.50579106943437
  H   -1.41856073110004     -0.06328780014875     -1.86104420114616
  H   -2.31751971037995      0.30726634236485      2.31696880270792
  Cl  -3.94596800486673      0.08774472683415     -3.03662649862429
  C   -4.99612674301945      0.52826371500037      2.00447686696272
  C   -5.84043508967858      0.41613124071690     -0.64446815155585
  C   -6.33097746666425      0.62587548757084      1.70219603651315
  C   -6.75235953370294      0.56785519112698      0.36234447114433
  C   -4.57683618955366      0.58993366485669      3.37553734800924
  H   -6.16952381485771      0.37254763061350     -1.67292492635583
  N   -4.23180680480778      0.63864894805415      4.46920964508912
  H   -7.05177084457973      0.74696593351600      2.49928049545685
  H   -7.80624151242328      0.64463224021308      0.13270613785201
