19
Coordinates from ORCA-job 399optt
  C   -1.72340529067577      0.11108950433424      0.25044735872611
  C   -2.15718276585775      0.05616444468142     -1.08984757222745
  C   -2.62791938175021      0.26281019974186      1.26248624786128
  C   -4.00976717734323      0.36695394849547      0.98094682205641
  C   -4.44785341099241      0.31181924037878     -0.36864892868535
  C   -3.48553066918424      0.15397133602528     -1.39375672664249
  H   -0.66837051013434      0.03253185414238      0.47680938202935
  H   -1.43146658163516     -0.06401613050150     -1.88315973689863
  H   -2.30095746626035      0.30591926791870      2.29378450471391
  H   -3.81572342010021      0.11166296576338     -2.42161160361541
  C   -4.97748543075742      0.52650350554632      2.01454779497226
  C   -5.84288087220331      0.41929619859245     -0.62029651275792
  C   -6.31347072163434      0.62571663014200      1.72149929923512
  C   -6.75175873237403      0.57139008497679      0.38868818418363
  C   -4.54672993406934      0.58467305676573      3.38121772421407
  Cl  -6.42582762422640      0.35830200221333     -2.24700727603627
  N   -4.19175624628454      0.63044256639493      4.47192627773185
  H   -7.03235641663179      0.74620574590577      2.52015527795960
  H   -7.80433734788513      0.64957357848265      0.15725948317991
