19
Coordinates from ORCA-job 406optt
  C   -1.70425528799364      0.10954425401749      0.23963337696245
  C   -2.12821754576145      0.05325813489881     -1.10270643219648
  C   -2.61420965461563      0.26074220065376      1.24776414718997
  C   -3.99422081436160      0.36350521939539      0.95847129038218
  C   -4.42132430008356      0.30696934054776     -0.39306942083134
  C   -3.45562357260876      0.14955948805371     -1.41311693378261
  H   -0.65075779750565      0.03253846124860      0.47353322134432
  H   -1.39789993560394     -0.06641100583315     -1.89164487741211
  H   -2.29145853823617      0.30457247719260      2.27998689912526
  H   -3.78161430795277      0.10651899211459     -2.44227167334990
  C   -4.96066661813169      0.52345123444742      1.99668765852217
  C   -5.81566466976478      0.41369654941239     -0.65152735363832
  C   -6.29446439489235      0.62192797274679      1.68418003939013
  C   -6.73066495286959      0.56672808960149      0.34871437402153
  C   -4.52307729295769      0.57936014807731      3.35798814285468
  Cl  -6.39414780718838      0.35132946076226     -2.27712317335262
  N   -4.13539848580700      0.62022695458306      4.43736370677339
  Cl  -7.47646677067225      0.81746811354777      2.91574431392578
  H   -7.78465725299305      0.64602391453197      0.12685269407153
