19
Coordinates from ORCA-job 408optt
  C   -1.68448146193186      0.09870785225642      0.11187327627275
  C   -2.16618288504400      0.04505014536697     -1.20735862749073
  C   -2.54224468513967      0.25345018891030      1.16650632379794
  C   -3.94831928787300      0.36308406803567      0.97073613418763
  C   -4.41447009965100      0.30886414682340     -0.37553764295249
  C   -3.50333030053167      0.14903196962992     -1.44597436632838
  H   -0.62484297025192      0.01913069668860      0.31005302468944
  H   -1.46689989361698     -0.07771901184347     -2.02325813529467
  Cl  -1.83966910735529      0.31228240291081      2.74248880564400
  H   -3.89363699209175      0.11187667853542     -2.45474120555300
  C   -4.93498984186988      0.52155146090600      1.99367067126889
  C   -5.79542553217559      0.41391517569775     -0.66144912306913
  C   -6.27118492204136      0.62021599136069      1.68099018054126
  C   -6.69783250209267      0.56636669472482      0.34576739474751
  C   -4.66416927281622      0.59030367002463      3.40545031636487
  H   -6.12588402018665      0.37113686109348     -1.69093696381595
  N   -4.59737832995593      0.65907868811386      4.54872312461946
  H   -6.99842915711210      0.73894448748207      2.47179426895703
  Cl  -8.38539873826244      0.69574783328266      0.00663254341357
