20
Coordinates from ORCA-job 417optt
  C   -1.72374066176757      0.11126338897112      0.24723976131166
  C   -2.15252542471438      0.05481620130616     -1.09382750317028
  C   -2.63267753956652      0.26361365041806      1.25548998585800
  C   -4.01519746966494      0.36763577587342      0.97466095739615
  C   -4.45044557892858      0.31222174738672     -0.37424655569447
  C   -3.48204323866778      0.15302227320617     -1.39430479237058
  H   -0.66945852391069      0.03311412884682      0.47689877751696
  H   -1.42698740229555     -0.06634767012347     -1.88687537609503
  H   -2.30787913688741      0.30736119608283      2.28754634542352
  H   -3.77194464492981      0.10468215467646     -2.43735582821419
  C   -4.98257795860910      0.52656425415681      2.00792843587172
  C   -5.84665427776470      0.41884945286992     -0.64507621733041
  C   -6.31834728981155      0.62410388294512      1.70145798053535
  C   -6.75360709477236      0.57024207540086      0.37288572811602
  C   -4.55621319386836      0.58493626286290      3.37332678413151
  N   -4.19967177431449      0.63038580290354      4.46425444720213
  H   -7.04012918135475      0.74388492572249      2.49801651528462
  H   -7.80355607932263      0.64699260507818      0.12816622735903
  O   -6.33538068203902      0.37577796774732     -1.90349566476732
  H   -5.63004284680975      0.27031992366856     -2.54752000836438
