20
Coordinates from ORCA-job 419optt
  C   -1.70948360997051      0.10632368490584      0.19330874824039
  C   -2.14543357984885      0.05193812477046     -1.14568949259064
  C   -2.60678266336959      0.25745852689354      1.21608352855612
  C   -3.98744493019858      0.36174931628744      0.94133139527461
  C   -4.42972254104322      0.30764689241747     -0.40102074344917
  C   -3.47883028784846      0.15079176183295     -1.43368045045495
  H   -0.65313086501611      0.02766853759906      0.41458461280550
  H   -1.42263223014437     -0.06754169403035     -1.94148840141737
  H   -2.26760570252427      0.29893444295568      2.24392441098858
  H   -3.82710973872064      0.11051705005293     -2.45875736247674
  C   -4.96173519810793      0.52151413938193      1.97110251065268
  C   -5.81959448572596      0.41282234197817     -0.67173166972594
  C   -6.30532924087838      0.62119257493889      1.67032681233465
  C   -6.73390409593348      0.56467822467610      0.32461324157890
  C   -4.58556792899965      0.58447218926733      3.34605098256854
  H   -6.14922767809790      0.36969062965382     -1.70291234290434
  N   -4.36451450650235      0.64395640682074      4.47298526248779
  O   -7.26180032797564      0.77344425017082      2.60215336444439
  H   -7.79326049891641      0.64530805443215      0.12430283228382
  H   -6.87874989017767      0.80099454499505      3.49005276080318
