21
Coordinates from ORCA-job 426optt
  C   -1.69716420304131      0.10169991185394      0.14358736383821
  C   -2.17026169765088      0.05207767341193     -1.18151292779521
  C   -2.57128182838331      0.25254855932010      1.18670940411416
  C   -3.97155097868543      0.36244495619674      0.95326978335737
  C   -4.43330569367255      0.30963740580467     -0.39023432657938
  C   -3.50295498444639      0.15259750619010     -1.44836923712193
  H   -0.63576432036928      0.02046148406052      0.34625953923172
  H   -1.46022760447381     -0.06745839583374     -1.98922092702045
  O   -2.16354513976759      0.30444284946177      2.47490198196463
  H   -3.87183693021217      0.11476051598466     -2.46469163585422
  C   -4.94048961949373      0.52234211241773      1.98388309133804
  C   -5.81304986360938      0.41299055080500     -0.66534249200863
  C   -6.27877539100790      0.62028176502497      1.68079399720406
  C   -6.71943970854115      0.56471501506197      0.34675888164512
  C   -4.62434756522517      0.59483695285938      3.38582413216653
  H   -6.16253935048956      0.37193493127273     -1.68882241350557
  N   -4.49708277269979      0.66499268921051      4.52387624464102
  H   -6.99503954197862      0.74124289420441      2.48473969055407
  O   -8.03651524564254      0.65952791918213      0.03376917928049
  H   -8.56499649583736      0.76155302000251      0.83131915921920
  H   -1.20610106477203      0.22174968350798      2.52612151133073
