21
Coordinates from ORCA-job 429optt
  C   -1.70512432878191      0.10867119007208      0.26192319093360
  C   -2.13571215220228      0.05379517804387     -1.08082798709231
  C   -2.60051293863402      0.26092396714553      1.27958797045829
  C   -3.98150289769681      0.36521823443122      0.98748435869763
  C   -4.43508809308076      0.31200305796232     -0.35365414095204
  C   -3.46488829146052      0.15297338736738     -1.38334662396849
  H   -0.64812356982904      0.02814943451457      0.47737179491642
  H   -1.41027309593164     -0.06706125679272     -1.87712713870063
  H   -2.27139682285364      0.30353188624662      2.30943716472036
  O   -3.94712797351252      0.10875566322120     -2.65259814001781
  C   -4.96844713201441      0.52550830155655      1.99785163651690
  C   -5.80762898574400      0.41340862036694     -0.65549622034798
  C   -6.30368439251155      0.62317868683668      1.69118543948283
  C   -6.72531999467975      0.56564240702771      0.35037386797180
  C   -4.56578784506647      0.58809726184243      3.37379629507298
  H   -6.14144979108465      0.37075524696815     -1.68239962922413
  N   -4.23988551175491      0.63799820431495      4.47328344263835
  H   -7.02966336060153      0.74428669053215      2.48650786027266
  O   -8.03942220509175      0.65892325167910      0.01895907672992
  H   -8.57935055211756      0.76115373580241      0.80854710934350
  H   -3.22107006535024      0.00154685086084     -3.27488932745186
