21
Coordinates from ORCA-job 437optt
  C   -1.70086402461264      0.09740340914152      0.19052783407547
  C   -2.12843375387001      0.03349905416816     -1.15032398691683
  C   -2.60244431780731      0.26334317702370      1.20785970616772
  C   -3.98234043330379      0.37469304962190      0.92822363259017
  C   -4.41374298887550      0.30968665481805     -0.41704933112656
  C   -3.46084370399254      0.13803962882333     -1.44392508417272
  H   -0.64617975908213      0.01436963888334      0.41873929355762
  H   -1.40252458812398     -0.09716406459103     -1.94147112810285
  H   -2.26704058180382      0.31183103305453      2.23656365823496
  H   -3.80576644532815      0.09088429453851     -2.47004860837437
  C   -4.95883327898521      0.54565555373165      1.95349701878398
  C   -5.80257601143953      0.42127323695557     -0.69240663504406
  C   -6.30973198648762      0.66011165699101      1.65902406388192
  C   -6.71681276322264      0.59086446910842      0.29799111564332
  C   -4.56920188527045      0.59823071007991      3.32412007587271
  H   -6.13030385101376      0.37017900251321     -1.72403334341930
  N   -4.31618957660944      0.63726431968558      4.44545189868812
  N   -7.24516378660908      0.87499069894680      2.63202662316174
  H   -7.77086120942759      0.68258892532195      0.06706154346542
  H   -6.97833863936624      0.74726050935232      3.59553254681407
  H   -8.20885641476849      0.69328504183155      2.41389910621945
