23
Coordinates from ORCA-job 438optt
  C   -1.71763963099422      0.06279697624683      0.10661784012989
  C   -2.17101607107969      0.02521547991632     -1.21626138958260
  C   -2.57587117067268      0.21728773570811      1.17931587982639
  C   -3.97769548169745      0.35262542961102      0.92842615853810
  C   -4.41699691715789      0.31496365896500     -0.41956015618245
  C   -3.50536420108067      0.15012520204778     -1.48268136127902
  H   -0.65773266801774     -0.03813534422473      0.30895403339067
  H   -1.45692494728667     -0.09951099373302     -2.01936661253333
  N   -2.05391891640873      0.16253342797306      2.46245206007306
  H   -3.88219155798319      0.12583523100226     -2.49685528340830
  C   -4.97378550961333      0.51664473747338      1.94884414924365
  C   -5.80493535683926      0.44092992156173     -0.69633276965853
  C   -6.32599614447744      0.64590010860780      1.64191378998919
  C   -6.72875996144989      0.60008330324619      0.28239546476257
  C   -4.69046572446156      0.57931353300668      3.34434940916522
  H   -6.11966423561014      0.40747359617073     -1.73254222681749
  N   -4.57971280686666      0.65780416635700      4.48775439639042
  N   -7.27225919014063      0.85639787279407      2.60664256551529
  H   -7.78033717320344      0.70197229017814      0.04506809957747
  H   -7.02559826519527      0.71688291654354      3.57378702339289
  H   -8.23353795735185      0.68935060851236      2.36762719907933
  H   -1.05199262186324      0.25076807007672      2.50899905665152
  H   -2.52004349054824      0.65363207195906      3.20616267373604
