13
Coordinates from ORCA-job 43optt
  C   -2.93826194654845      0.52308363816893     -0.00000063611952
  C   -2.75547245424732     -0.85764849800840      0.00000013100870
  C   -1.81383031231143      1.35536505881361     -0.00000035121997
  C   -0.53195285251164      0.81173221136111     -0.00000032755463
  C   -0.36656371263024     -0.56193114145966     -0.00000016125275
  C   -1.47462828410683     -1.39317480850321      0.00000018749601
  H   0.31911584400907      1.47804353809794     -0.00000036764458
  H   0.62625009048369     -0.98947759034580     -0.00000031850425
  Cl  -4.50544797097496      1.21104844380067     -0.00000175947330
  C   -1.96729038387825      2.78150221030084      0.00000054768842
  Cl  -4.10433520667051     -1.92382574865917      0.00000134065749
  H   -1.36281687179398     -2.46861948264102      0.00000030563563
  N   -2.05348593881913      3.92515216907419      0.00000140928274
