23
Coordinates from ORCA-job 441optt
  C   -1.71424420284103      0.05447979406110      0.24600046950860
  C   -2.12833711025438     -0.01307887752498     -1.09254677937880
  C   -2.61053731558336      0.25436635012285      1.26127770667347
  C   -3.98404935959876      0.37193634339866      0.96105280003921
  C   -4.42190599749975      0.27639302018917     -0.38271985596824
  C   -3.46050441444899      0.10599091721227     -1.42075255605654
  H   -0.66012331925477     -0.03995959750676      0.47352020004032
  H   -1.39543845626370     -0.14769113476493     -1.87855961210687
  H   -2.28045711247674      0.32114663825735      2.28942929579295
  N   -3.88288575131695      0.00510445836707     -2.74463841167480
  C   -4.96055208664982      0.57137318434427      1.98112124182525
  C   -5.81400880062058      0.33672389354173     -0.64445982882780
  C   -6.31545862245828      0.66033199330449      1.69599747313207
  C   -6.72854553574963      0.52476200670765      0.34545249018918
  C   -4.56584356704207      0.66972596360404      3.34825864620150
  H   -6.17332266942024      0.20484405608340     -1.65679328856111
  N   -4.31463297436171      0.74834343235700      4.46792030515854
  N   -7.24515505952452      0.90194705918843      2.66941027568514
  H   -7.78596171221723      0.56630437366502      0.11623417390075
  H   -6.96739134605088      0.80616758165171      3.63368590676561
  H   -8.20677163048576      0.69225606069689      2.46721618362612
  H   -3.13306646236706      0.06112671958524     -3.41643414779071
  H   -4.64817649351363      0.60787576345832     -3.00383268817384
