23
Coordinates from ORCA-job 448optt
  C   -1.67873435497511      0.07249794227775      0.26782383408216
  C   -2.11155221025688     -0.02024464377566     -1.07100357579060
  C   -2.58745356705509      0.26194259209991      1.26935169623965
  C   -3.96841549541295      0.37384376900044      0.98302396783630
  C   -4.40823688112643      0.29669075396012     -0.36398089166280
  C   -3.43880616212986      0.08809737258967     -1.37699053265167
  H   -0.62561820675849     -0.01346563794389      0.49980219580423
  H   -1.38854422632716     -0.18502558048995     -1.85892625401440
  H   -2.26504894600469      0.32689757055031      2.30124263201704
  H   -3.74337129266967     -0.01262268281856     -2.41027528413651
  C   -4.93635885931903      0.56276473923333      2.00634055332015
  C   -5.79310932518224      0.43804109430985     -0.65911330760198
  C   -6.27380914393691      0.63839318586601      1.69565635793606
  C   -6.71415597931114      0.56441133175203      0.36979403093146
  C   -4.52290195046316      0.65659041790177      3.37274059304136
  N   -6.27417091553635      0.40013355292056     -1.96012268443487
  N   -4.18256819933626      0.72704043731076      4.46788721311163
  H   -7.00042483204621      0.75823085943972      2.49010339007980
  N   -8.07631379633975      0.68456250987634      0.03489143699478
  H   -8.67975428875930      0.73105042274542      0.84289901101193
  H   -8.39239323334715     -0.05302317489014     -0.58441678033284
  H   -5.60021096279518      0.60857605012682     -2.67870665525295
  H   -7.12506717091091      0.93422711795737     -2.08108094652795
