23
Coordinates from ORCA-job 449optt
  C   -1.79449975361433      0.10644466075079      0.05438280787287
  C   -2.28326538862759      0.05632191589566     -1.26785575792991
  C   -2.66012064997946      0.25866642591027      1.10786713188321
  C   -4.06785914300587      0.36796657455840      0.88209186837647
  C   -4.53571713090902      0.31442784527705     -0.45562345023421
  C   -3.61638422645569      0.15692311932164     -1.52334870854720
  H   -0.73222429053817      0.02408087313121      0.22869481717757
  H   -1.57909373641765     -0.06399173554822     -2.08063085143676
  O   -2.27798203960507      0.31562795359894      2.39558801740351
  H   -3.99574680471131      0.11886729157999     -2.53612296847009
  C   -5.02697834909125      0.52695152399870      1.92525201360447
  C   -5.92264495141201      0.41815951057467     -0.71281456977675
  C   -6.36945474484838      0.62417939169223      1.63127594260551
  C   -6.82159873626938      0.56930026415522      0.30374782616115
  C   -4.69452365667732      0.59770824955309      3.32373128776482
  H   -6.25789551199783      0.37425537864841     -1.74187407368453
  N   -4.55526349681384      0.66665464547056      4.46085594736439
  H   -7.07409645679239      0.74386937012816      2.44289498095449
  H   -7.88019690718546      0.64729967363089      0.09650141906378
  C   -0.90579129823436      0.21042313468232      2.70350908100776
  H   -0.83787423307373      0.27865621329584      3.78533492858787
  H   -0.33920261127002      1.02548590110143      2.24612269915519
  H   -0.50293588246979     -0.74858818140726      2.36805961109638
