13
Coordinates from ORCA-job 44optt
  C   -2.96740355865644      0.53869588935397     -0.00000036927767
  C   -2.80793839836837     -0.83714757852571     -0.00000005064026
  C   -1.85485152058363      1.38255142462050      0.00000000239466
  C   -0.57632699042946      0.82445953820113     -0.00000041620305
  C   -0.40461865865561     -0.54639224539950     -0.00000036021756
  C   -1.52636153417287     -1.36448633552729      0.00000028356510
  H   0.28133823235707      1.48291910618767     -0.00000066555680
  H   0.58352701016296     -0.98315443080439     -0.00000087316905
  Cl  -4.55368164630679      1.19957606170525     -0.00000142894306
  C   -2.00583826575339      2.80706669695530      0.00000077642180
  H   -3.67200483190705     -1.48547598465186      0.00000006001758
  Cl  -1.32765930416625     -3.07787753470508      0.00000163251838
  N   -2.09690053352017      3.95051539259000      0.00000140908994
