23
Coordinates from ORCA-job 451optt
  C   -1.67294632874806      0.09391183663546      0.31305768094803
  C   -2.06001502319200      0.00596264543033     -1.04912193372669
  C   -2.60480444793139      0.26467498944414      1.28799584552558
  C   -3.98181665692316      0.35755168551255      0.96184861155847
  C   -4.36888981163674      0.26931321097739     -0.39634968934594
  C   -3.38161243382270      0.09151849858444     -1.39851530695698
  H   -0.61876840834799      0.02104452732318      0.54482320261156
  O   -1.03812551285700     -0.16174710224821     -1.91684972928519
  H   -2.30322175399218      0.33154396021694      2.32594269163440
  H   -3.70093645280973      0.02706678745336     -2.42901295874592
  C   -4.99350628794029      0.53578347458200      1.94452952968449
  C   -5.74189855053326      0.36086113545605     -0.72541704793495
  C   -6.32033847040519      0.62071629517539      1.59556129131816
  C   -6.69287773909041      0.53153099612357      0.24335674201956
  C   -4.61900398172577      0.62888738833404      3.32695036027895
  H   -6.03100210855693      0.29243511762748     -1.76729512873704
  N   -4.30721090044037      0.70214236571700      4.42940155446981
  H   -7.06872718753502      0.75549734552685      2.36414647883408
  H   -7.73838103361103      0.59935878064162     -0.02527598944539
  C   -1.35339493617293     -0.25370086945443     -3.28908047090912
  H   -0.40943555805165     -0.38188603364882     -3.81079949309007
  H   -1.84422641056716      0.65804810278774     -3.63946965877195
  H   -1.99978000510896     -1.11313513819809     -3.48540658193381
