23
Coordinates from ORCA-job 455optt
  C   -3.00599238203702      0.25179766338266      0.72060547194797
  C   -3.26311929530790      0.18368495439606     -0.66641147911122
  C   -4.02767828854343      0.38896233814549      1.61778981911284
  C   -5.36759338954920      0.46514592638528      1.16777212918639
  C   -5.62828102352038      0.39666476152173     -0.22274748699152
  C   -4.54695914557696      0.25470172051001     -1.12502083761178
  H   -1.98556092311294      0.19456542179828      1.07651159855044
  H   -2.44043229940009      0.07518442095883     -1.36040124117486
  H   -3.82626274913128      0.44098607193837      2.68032383567508
  H   -4.75962599590964      0.20357016303474     -2.18611425132704
  C   -6.46404825288708      0.60816152459313      2.06267899855048
  C   -6.96678826299169      0.47219310731385     -0.66844676323243
  C   -7.76336792224739      0.67863910104391      1.59283431189408
  C   -8.01018722008775      0.60872039425646      0.20257218547844
  C   -6.22573199186016      0.68035016947894      3.47078499445584
  H   -7.16283195643878      0.41930457263711     -1.73279429021493
  N   -5.99414713238584      0.73513374314024      4.59414514837356
  O   -8.73496348181825      0.81332969940916      2.51150395723660
  H   -9.02104251480010      0.66284131472404     -0.17256758083566
  C   -10.07920111512518      0.88482098273782      2.07917208486544
  H   -10.67487979478201      0.98816512133018      2.98114309906276
  H   -10.37191493945869     -0.02599252669729      1.55196520954064
  H   -10.24020992302817      1.75234935396100      1.43522108656890
