27
Coordinates from ORCA-job 456optt
  C   -2.90490490907032      0.31788387025995      0.99368390111800
  C   -3.13306149698498      0.19756479148449     -0.39393103688990
  C   -3.95342504764942      0.47334708270110      1.86409473490019
  C   -5.30085036856309      0.51644850824253      1.38251341731246
  C   -5.50236726560504      0.39274229279678     -0.01429893372256
  C   -4.39884149561574      0.23358154496883     -0.89055585634407
  H   -1.89173307987019      0.28607991776764      1.36566918250615
  H   -2.28632856258236      0.07596041535518     -1.05625835960184
  O   -3.81459828524530      0.59371695732810      3.19640918188393
  H   -4.58685781677318      0.14206820693134     -1.95252392624616
  C   -6.43390838272958      0.67415034358255      2.23139845397652
  C   -6.81961116786052      0.42951081452818     -0.51865829109712
  C   -7.71379177247079      0.70462459869845      1.69010374707073
  C   -7.90202616397856      0.58006137364544      0.29848498562742
  C   -6.36495512572327      0.80864768752340      3.65826747576192
  H   -6.96376436497122      0.33389054163055     -1.58802814770919
  N   -6.40918663725645      0.92041737100201      4.79969355957509
  O   -8.73095516934814      0.85608683340588      2.55585487582281
  H   -8.89646699936768      0.60332930683571     -0.12094070537147
  C   -10.05318643184411      0.89104455925014      2.06005379888065
  H   -10.69109933123295      1.01858708918121      2.92957122336275
  H   -10.31015186156760     -0.04268013025332      1.55427025236876
  H   -10.19694861046212      1.73176793642871      1.37727937001870
  C   -2.52058822098088      0.55684115049924      3.75285875150592
  H   -2.03032825044858     -0.39685578223015      3.54029494973462
  H   -2.65526504372705      0.66894729668472      4.82485256400874
  H   -1.90640813807081      1.37638542175134      3.37057083154690
