27
Coordinates from ORCA-job 462optt
  C   -3.00834649726602      0.30384829397458      0.44052357848881
  C   -3.24115335099386      0.19024778700314     -0.94863025419412
  C   -4.06255777751679      0.43803737835265      1.30525001029886
  C   -5.40707683436288      0.46468704027839      0.81551527708269
  C   -5.61834964258994      0.34812826433032     -0.58410176530965
  C   -4.50297257629944      0.21064607721542     -1.45422338363982
  H   -1.99450825188726      0.28362669233252      0.81051634619432
  H   -2.39203183975162      0.08552608264541     -1.61146683380706
  O   -3.93686910773218      0.55173564398958      2.63939343821579
  H   -4.68046248458158      0.12334593640749     -2.51795743890937
  C   -6.55035487764251      0.59966684122248      1.64540953277809
  C   -6.92561284996380      0.36884321226919     -1.10064165136299
  C   -7.82379550540713      0.61694839813514      1.11135912435366
  C   -8.01552862982224      0.50018450024231     -0.27620743328970
  C   -6.49775351812318      0.72714576635617      3.07839529537146
  H   -7.08446660086746      0.27985672811387     -2.16774530903887
  N   -6.58848297525581      0.83835687264006      4.21709745484246
  H   -8.66129335677552      0.72142345873158      1.78455137374723
  O   -9.23564869640474      0.50990313501582     -0.86181546968267
  C   -10.37389122466073      0.64408887947199     -0.03562687064821
  H   -11.23182912167935      0.62856244564512     -0.70149167134467
  H   -10.35656387778137      1.59029636871279      0.51092872443077
  H   -10.44911759555299     -0.18528673948537      0.67200662985161
  C   -2.64448228348887      0.52983167557046      3.20326152357618
  H   -2.78571875778929      0.63270651617677      4.27526750017527
  H   -2.04110115190713      1.36068718660145      2.82894041861002
  H   -2.14017061389619     -0.41518444194934      2.98608185320988
