27
Coordinates from ORCA-job 465optt
  C   -3.23886014905408      0.17264365088542     -0.16254677569912
  C   -3.61006412294284      0.06251999140920     -1.52438643350241
  C   -4.17076748965076      0.33712306876432      0.81530036964102
  C   -5.54447553764014      0.39949262147129      0.46884562682358
  C   -5.94318733154991      0.29192832243895     -0.88603752272544
  C   -4.92926918122077      0.12011048663918     -1.88212510694985
  H   -2.18895761333485      0.12358149695293      0.09423865869382
  H   -2.83917490459808     -0.06658230684157     -2.26931574038489
  H   -3.88155413332776      0.42095957079498      1.85458435777069
  O   -5.38938062290534      0.02584964513678     -3.15026954525233
  C   -6.57020667285272      0.56862902448626      1.43207147993070
  C   -7.30157049939345      0.35276985899344     -1.23515280904893
  C   -7.90152813859932      0.62637431683436      1.08121548622668
  C   -8.27017028314422      0.51696983196705     -0.27142612509951
  C   -6.21943150118005      0.68404164146571      2.81897864657240
  H   -7.59917859228235      0.26984756812241     -2.27055761392465
  N   -5.93455503467541      0.77831271302963      3.92712380377281
  H   -8.64152987252197      0.75545062973840      1.85678773769269
  O   -9.55547169073451      0.56383394207473     -0.69702233051733
  C   -10.57283630382695      0.73139846900857      0.26712505033892
  H   -11.50961687642175      0.74334428241617     -0.28259159246462
  H   -10.45757319917036      1.67584999286205      0.80524945330280
  H   -10.58283089856893     -0.09656264665471      0.98072475129799
  C   -4.44067415069573     -0.14272602815835     -4.18068350823374
  H   -3.75033840625967      0.70374436275703     -4.21919159127764
  H   -5.00455715707259     -0.19519124994208     -5.10762538319239
  H   -3.87447963637536     -1.06760325665218     -4.04402334379124
