27
Coordinates from ORCA-job 467optt
  C   -1.85189680889139      0.19140291937273      0.08523406915937
  C   -2.28870442662545      0.31133371211501     -1.24834851752224
  C   -2.73625365946861      0.21152423635796      1.13875151335037
  C   -4.14340694506899      0.27555923853849      0.86492797360322
  C   -4.56607705124452      0.45537597469621     -0.48002943321014
  C   -3.61166756560269      0.47547255387966     -1.52674950830327
  H   -0.79217056907159      0.11344088255731      0.28428548812101
  H   -1.55797127761080      0.30234815647664     -2.04661449837653
  N   -2.30967849979548      0.14778910246291      2.47374128754747
  H   -3.95844238318652      0.60270278712581     -2.54426425240800
  C   -5.16158809225779      0.11614864357257      1.85455327886784
  C   -5.94390470860261      0.57712568080849     -0.77730195649867
  C   -6.49499986300304      0.22535402672504      1.52230908221753
  C   -6.89100576474969      0.48275153778555      0.20116550601177
  C   -4.90851047473626     -0.22691406399299      3.22945086158573
  H   -6.23259340621394      0.73604523823923     -1.80927019330546
  N   -4.84444733708222     -0.50134533438631      4.34261472543895
  H   -7.23783681024378      0.09066769608217      2.29681116955776
  H   -7.94231578654391      0.57520793915349     -0.03484761086823
  C   -1.01929512281562     -0.45525279411474      2.72624396272790
  C   -2.47735951364749      1.38111397638440      3.23436725885407
  H   -0.93367410086076     -1.39453753962061      2.18201173536980
  H   -0.94095377547611     -0.66210949315369      3.79386173993428
  H   -0.17904552853620      0.19750071218497      2.44607482118578
  H   -3.41507451578084      1.86812166097238      2.97618313204751
  H   -1.65669389464909      2.08200699017818      3.02664944341947
  H   -2.49633211823450      1.14918555959910      4.29930892149268
