27
Coordinates from ORCA-job 468optt
  C   -1.76699072031380      0.07794993659520      0.16309680471334
  C   -2.27293812840072     -0.01975029401546     -1.17098641942937
  C   -2.67415022997793      0.28287872237209      1.19349633438246
  C   -4.05365373579645      0.38096207773170      0.93871933004419
  C   -4.54714088187992      0.27718591597726     -0.38683721470600
  C   -3.60631015612192      0.07557033867522     -1.42498334596337
  N   -0.42272908492610     -0.03199845224443      0.39892655983245
  H   -1.59183299440139     -0.17256528707044     -1.99483445636785
  H   -2.33938763551718      0.37085891350743      2.21656720424036
  H   -3.96577449211589     -0.00285085195672     -2.44419312450120
  C   -5.00974995845213      0.58825896817258      1.97904827010448
  C   -5.93168783093928      0.37678786940173     -0.63490141516277
  C   -6.35426068932084      0.68148489982151      1.70636522455774
  C   -6.82308054616945      0.57454868215967      0.38630605104224
  C   -4.55289291330160      0.69966595511775      3.33324496350616
  H   -6.28080636156040      0.29312714531968     -1.65756255917265
  N   -4.16496000589067      0.78563797280793      4.41094690048794
  H   -7.04885488408364      0.83826531082392      2.52085508195386
  H   -7.88288753579484      0.64939144643164      0.18676656301582
  C   0.07189531214022      0.13232835257614      1.74769661009123
  H   -0.16441995215199      1.12383235224645      2.14834156844955
  H   1.15089472979358      0.00734599134255      1.75130299732508
  H   -0.36010914405177     -0.61425710455153      2.41938328784931
  C   0.50999242905899     -0.14463765561664     -0.70089423333164
  H   1.51924503402335     -0.19960131587626     -0.30295989174498
  H   0.45720404203825      0.71677002153708     -1.37464546931990
  H   0.33275633411361     -1.04982991128605     -1.28766562189647
