27
Coordinates from ORCA-job 470optt
  C   -1.81763649909197      0.35314576388884     -0.21656578024972
  C   -2.31005311021344      0.07388212562335     -1.50845373955714
  C   -2.66440911690533      0.53409813809622      0.83661872810736
  C   -4.05847216726334      0.38878015956677      0.64363552330159
  C   -4.56690503550380      0.06948021707770     -0.64041324968222
  C   -3.65831724778848     -0.03959075902349     -1.74479109772667
  H   -0.74900226134894      0.44495257265828     -0.07175886908130
  H   -1.60667979841852     -0.02953757157852     -2.32250474431447
  H   -2.28660797909846      0.77095807955548      1.82263330778863
  N   -4.19210089217031     -0.29023271679113     -3.02720927321141
  C   -4.98508733410243      0.51928883900811      1.71879332081086
  C   -5.95069933952842     -0.18642931143715     -0.78639358388712
  C   -6.32929129582013      0.30577732129166      1.53607351696967
  C   -6.81106323020156     -0.06960296406255      0.27127211393164
  C   -4.50023598168727      0.86598837251919      3.02438014889040
  H   -6.31608510958275     -0.50755340728650     -1.75217012955369
  N   -4.10551048778529      1.14398708537025      4.06601267019438
  H   -7.00546111739093      0.40893885344402      2.37391014664118
  H   -7.86433545534312     -0.27874157946663      0.14288382397169
  C   -4.91994860765113      0.83686483525233     -3.60385256541231
  H   -5.52356343607407      0.48614525782427     -4.44189665503492
  H   -4.22864779860219      1.60902237118951     -3.96971509377931
  H   -5.57623370847341      1.29181397888447     -2.86645565604795
  C   -3.27925279059599     -0.86184670998484     -3.99681400900162
  H   -3.85487691278302     -1.19333041938565     -4.86117910357106
  H   -2.76979183473921     -1.72238524157460     -3.56597371492165
  H   -2.52596145183632     -0.14268329065941     -4.35064603557475
