27
Coordinates from ORCA-job 472optt
  C   -2.16057768693297      0.22058936502362      0.08860098638498
  C   -2.62121500576286      0.11706535125261     -1.24291786213834
  C   -3.05288983410611      0.35034434219468      1.11507503354297
  C   -4.44149976773197      0.38054285183031      0.85325137012815
  C   -4.91268269249559      0.27732979587137     -0.47838371980615
  C   -3.95787822282940      0.14510943169134     -1.51936797423658
  H   -1.09851254403857      0.19713078336809      0.29237343593563
  H   -1.90521169606418      0.01499924791121     -2.04810711252685
  H   -2.70981017823652      0.43137628183261      2.13933463086955
  H   -4.31044162508230      0.06592933598328     -2.54063458413416
  C   -5.42117429867026      0.51912260611588      1.87374591947068
  C   -6.29676542854883      0.31123364681644     -0.74984370949186
  C   -6.76236872060707      0.54646114534930      1.59559235430298
  C   -7.23846304262466      0.43116982038492      0.25937572846451
  C   -4.99956730673709      0.63904842651619      3.24149252030594
  H   -6.60315012340983      0.23782841556689     -1.78348205265315
  N   -4.65451769150577      0.73401477666592      4.33223574564746
  H   -7.45399222709367      0.65754425449915      2.41664685003830
  N   -8.59283864108550      0.43412575926243      0.00817112224013
  C   -9.03653862126916      0.49310965101614     -1.36604309680858
  H   -8.68096512717033      1.39507790151032     -1.87981016023680
  H   -10.12276278118967      0.48524978310481     -1.39069402756520
  H   -8.68392068960531     -0.37726115378340     -1.92330380032632
  C   -9.51332191979406      0.83783932343721      1.05116895926565
  H   -10.52417820486357      0.81942012434934      0.65327496222874
  H   -9.30757940194274      1.84814235870294      1.42344095317341
  H   -9.48115652060184      0.14684637352642      1.89541752792490
