27
Coordinates from ORCA-job 473optt
  C   -2.60803373021494      0.13838713933087      0.60080107310162
  C   -2.97091853039997      0.24450249053168     -0.75684495475491
  C   -3.55234790359951      0.21110465234232      1.58918953986331
  C   -4.91664904001078      0.39806606474113      1.26597100142850
  C   -5.28095761128874      0.49364201020649     -0.09668041331246
  C   -4.28479394337107      0.41753015846734     -1.09436163993770
  H   -1.56804938536006     -0.00219792152696      0.86558990434960
  H   -2.21097291871597      0.18625582636678     -1.52440730398705
  H   -3.26311729578204      0.12610317310681      2.62900555229573
  H   -4.58369774810908      0.49644083275530     -2.13293595693531
  C   -5.93643974396172      0.46743454508557      2.26545287531328
  C   -6.65212051755750      0.65287829667184     -0.41689990564835
  C   -7.27597877485947      0.67529540095687      1.93230740650243
  C   -7.60842341804110      0.73966645078300      0.54504884062724
  C   -5.55680023508895      0.19454570079821      3.61459929504645
  H   -6.93510845116686      0.72416520655880     -1.46074415492077
  N   -5.23122951648496     -0.06310909414629      4.68694140716817
  N   -8.26120351198749      0.80744735593117      2.87643682192013
  H   -8.63744155523347      0.89713123713739      0.25764544206769
  C   -9.65232383507627      0.64347310667071      2.51296065420134
  C   -8.03229898764061      1.49277902977679      4.13982214894099
  H   -7.11391433714768      2.07381951098951      4.09543501011254
  H   -7.96141696113062      0.80376126390108      4.98311424583080
  H   -8.86055933513272      2.18301354942549      4.31365179431964
  H   -9.77120912764323     -0.17837629476602      1.80919583693051
  H   -10.08671209726387      1.55266610460777      2.07837699964428
  H   -10.21530148773107      0.39431420329634      3.41168847983224
