35
Coordinates from ORCA-job 476optt
  C   -2.61773124273716      0.18529661910159      0.39578935304662
  C   -3.00540973983150      0.23512326372731     -0.97434801687720
  C   -3.53252575619332      0.26762064633738      1.40551007448092
  C   -4.91242677874686      0.40422669542468      1.13558725856379
  C   -5.31303003238814      0.43069876651355     -0.21687949740385
  C   -4.35692473673958      0.34174326114386     -1.25002103924754
  H   -1.57483678934712      0.08127566626021      0.65581391141381
  N   -2.04760329067194      0.18739076145056     -1.97387076073378
  H   -3.19643822206384      0.22524164321752      2.43416294710119
  H   -4.71970562107354      0.35875547324595     -2.26769867029959
  C   -5.89833077635254      0.48190737256551      2.16585608332753
  C   -6.70009816753515      0.53170580356872     -0.49408412225170
  C   -7.25178872474736      0.63032871233671      1.87274963452918
  C   -7.62732217765465      0.62890624672540      0.49771973166222
  C   -5.46666816185310      0.29462767064203      3.51452573268027
  H   -7.02267303143184      0.54912660743232     -1.52874627310626
  N   -5.09749583624825      0.11392286645710      4.58848869265239
  N   -8.20909044207724      0.75798421418084      2.85602667207797
  H   -8.67018487071095      0.73839636017783      0.23765191154109
  C   -9.60145728971215      0.52849608737282      2.54338606930605
  C   -7.98061951785226      1.58330420186706      4.03280999121327
  H   -7.06108371624878      2.15357539759455      3.92575356942825
  H   -7.90980349938979      0.99054157348234      4.94664304398644
  H   -8.80708322148935      2.29213641034915      4.13334047256627
  H   -9.71022597801449     -0.33718964758218      1.89208081470308
  H   -10.08025258344160      1.39541135516574      2.06836853505984
  H   -10.13253719935378      0.31586859571122      3.47095914151468
  C   -2.50168681452647      0.02669081248690     -3.33605469935744
  H   -3.06922312460736     -0.90207538970895     -3.48384972808887
  H   -1.64127580826042      0.01841177902771     -4.00031274395992
  H   -3.13821816964737      0.86369609474131     -3.62803082835768
  C   -0.72317068726348     -0.30272936395125     -1.65048685186492
  H   -0.12699437191516     -0.32711904133752     -2.55916467967413
  H   -0.74024392164120     -1.31139769139531     -1.21933858281582
  H   -0.21905969823202      0.36212017566733     -0.94813714681618
