13
Coordinates from ORCA-job 47optt
  C   -3.01593040011663      0.57512785565988      0.00000013006624
  C   -2.84033175175302     -0.79811597445957     -0.00000000341515
  C   -1.88702327704586      1.38987213899193      0.00000007787707
  C   -0.60441276078603      0.84795670466134      0.00000015899522
  C   -0.46900070083725     -0.52982367673098      0.00000000685541
  C   -1.57526709845713     -1.36600851854155     -0.00000014288263
  H   0.26567763084928      1.48821908665944      0.00000019184845
  Cl  1.10969880992681     -1.22657572166577     -0.00000006370271
  H   -4.00722758407882      1.00456174858195      0.00000014694162
  C   -2.04876423474694      2.81741524000922     -0.00000011787856
  Cl  -4.22430194164894     -1.82857665616247     -0.00000001306159
  H   -1.45368332213940     -2.43974337001421     -0.00000011784249
  N   -2.17814336916608      3.95695114301078     -0.00000025380089
