22
Coordinates from ORCA-job 488optt
  C   -2.38893083645196     -0.74887792596391      1.71771311507430
  C   -2.26339810345526     -0.12519143000752      0.46148185975872
  C   -3.60241623951423     -0.79259273224050      2.33918908563394
  C   -4.74068698634481     -0.20934060759743      1.73387072455527
  C   -4.62475043478660      0.43859953146895      0.47673142847510
  C   -3.34316313699884      0.45856463003621     -0.15113619312089
  C   -3.14042008529685      1.16792319829567     -1.45797393337377
  C   -6.01977059633767     -0.25379024121651      2.36102189366233
  C   -5.78219685541640      1.01036798412113     -0.11051752589903
  C   -7.12016871254401      0.31118839033325      1.76811684698809
  C   -6.99337649476757      0.94504212080601      0.52024850515166
  C   -6.15544809743845     -0.90405711437157      3.63289217719788
  N   -6.24867952077508     -1.42474157679265      4.65156086804985
  H   -8.07955595094784      0.26339581554377      2.26508468236148
  H   -5.69470397409847      1.51307150261805     -1.06181270843757
  H   -7.86598040660630      1.38665338031094      0.05870428281258
  H   -3.71029560135783     -1.27190803694044      3.30419925181135
  O   -3.64656128508085      2.21145821646351     -1.74355823214912
  O   -2.30393207059877      0.56315357910722     -2.32571527177385
  H   -2.07000289255684     -0.31909925392563     -2.01532422302696
  H   -1.51827437250427     -1.18629331296133      2.18687361180526
  H   -1.28561734612101     -0.07504611708725     -0.00352024555662
