22
Coordinates from ORCA-job 490optt
  C   -1.96455943500070     -1.08656288154812      2.76057991694241
  C   -1.27127962442979     -0.60938462820401      1.62792567171946
  C   -3.32429604602560     -0.96968965301492      2.84773214352660
  C   -4.05403211474308     -0.36779409817687      1.79874531157742
  C   -3.36252941468022      0.10661536020652      0.65719352471660
  C   -1.95473964225316     -0.02462895227786      0.60023937928093
  C   -6.27250858078179      1.48156340478823     -1.40903383465965
  C   -5.47196627495567     -0.20546423880293      1.84129037708992
  C   -4.09416796937466      0.69948348967742     -0.39892028529272
  C   -6.15181378047513      0.38623537031496      0.81188062689044
  C   -5.45556686348534      0.83163652900117     -0.33319106096222
  C   -6.19052598192591     -0.67057154268548      2.99401600057908
  N   -6.74282826301382     -1.05464909837445      3.92357601548767
  H   -7.22363025745644      0.52361812058341      0.85494838869887
  H   -3.85593249699674     -1.33245386050656      3.71842264742258
  O   -7.35060932778995      1.94963815320569     -1.20136117232456
  O   -5.73615362569284      1.52264404907915     -2.64347299121976
  H   -4.94086735899103      0.98193645214933     -2.69673673366418
  H   -1.41181899517578     -1.54774507734026      3.56830150325894
  H   -0.19518394901831     -0.70862129182201      1.57842797105743
  H   -1.43087368247275      0.34476702978462     -0.27291114709205
  H   -3.53145631526120      1.07845736396299     -1.24604225303321
