25
Coordinates from ORCA-job 493optt
  C   -2.06773145834091     -1.07777390347577      2.85015162452764
  C   -1.08958658066351     -0.55272098830233      1.97242560773426
  C   -3.39950307496115     -0.89068455101309      2.59304665004980
  C   -3.81383474603842     -0.19628566200032      1.43454734843071
  C   -2.83354066826900      0.32250973275542      0.55145712649638
  C   -1.46478906390461      0.13585592062214      0.85620349443596
  C   -7.01306464871755      0.90299568077147     -0.33413551123367
  C   -5.19224067906806      0.00481084007680      1.12285786496370
  C   -3.24339735083045      1.01805785741440     -0.60910195553561
  C   -5.56049843633779      0.67342473538939     -0.02323311231761
  C   -4.56784409055891      1.18073739863770     -0.89210432844421
  C   -6.16977253565177     -0.54554884722582      2.02000457116534
  N   -6.88032523618249     -1.04576613238148      2.76816114383392
  H   -4.13170241918723     -1.28063985604114      3.28970325357678
  O   -7.82358963622730      1.18253696520829      0.49044039223778
  O   -7.35118723684269      0.79893388585962     -1.63544503994221
  H   -6.62751429817482      0.43606080707972     -2.15891731754945
  C   -1.70294028169912     -1.83124075069943      4.09720981353246
  H   -0.03516370160554     -0.65579052827450      2.20047805682205
  H   -0.72005268897048      0.55449014420335      0.19117851425088
  H   -2.48820763560194      1.42577452443301     -1.26943750812950
  H   -4.86756916995623      1.73647008192363     -1.77221530875183
  O   -2.41487632431209     -1.89258084257124      5.05110479208315
  O   -0.50712046060570     -2.45431158328626      4.09355234476805
  H   -0.10463757729213     -2.43911492910353      3.21856748299521
