25
Coordinates from ORCA-job 495optt
  C   -2.11969183637691     -1.13473073260099      2.79599565296715
  C   -1.14304441642325     -0.56710399254439      1.95568988825187
  C   -3.44605859115295     -0.98453074223186      2.51114500522730
  C   -3.85729022283675     -0.23033334618878      1.38545982656271
  C   -2.87990425089633      0.34791626536918      0.53183024265554
  C   -1.50435800704469      0.13106040848232      0.83516197165399
  C   -7.08392481645122      0.97509226793377     -0.26631778381391
  C   -5.23847957123911     -0.01799352990509      1.09693211424686
  C   -3.31374996564539      1.16173455195760     -0.54493203402704
  C   -5.62653837682393      0.73957040592519      0.01456862693018
  C   -4.64343838836635      1.33993689431254     -0.79936324750926
  C   -6.20126038175502     -0.64677511294144      1.95889288505138
  N   -6.88748917229077     -1.21327064804653      2.68231049923573
  H   -4.19959954622003     -1.42683529866935      3.14959119418722
  O   -7.89866474891876      1.13417614144471      0.58601820609862
  O   -7.42412755667447      1.02056345021304     -1.56957728112404
  H   -6.69272332137975      0.74807995627936     -2.13532402912667
  H   -1.81248763109125     -1.69655963932305      3.66752383954172
  H   -0.09068028821838     -0.68556837374586      2.17907789665230
  C   -0.38640116612952      0.62954560979186     -0.03502725318137
  H   -2.58458111517892      1.67628692315005     -1.15696952072839
  H   -4.94867655653468      1.99291181044490     -1.60797535987742
  O   0.58929785374283      1.16319214801560      0.39313153399537
  O   -0.51338943234964      0.39741263899057     -1.35993739666453
  H   -1.28752849374465     -0.14967805611340     -1.54001547720532
