25
Coordinates from ORCA-job 499optt
  C   -2.18106747758393     -1.07971697356895      2.89478001490796
  C   -1.13374184407152     -0.50673119790583      2.13720498130609
  C   -3.48614759572334     -0.90417241403213      2.51439462546191
  C   -3.79763010265978     -0.17643028588501      1.34812956293320
  C   -2.74809664385016      0.38459509195938      0.58022268973840
  C   -1.41250163742297      0.21255302239476      1.01090128125360
  C   -5.14102829581251      0.03027496885717      0.90859054501293
  C   -3.05816908951045      1.10833654942779     -0.59615404299581
  C   -5.41134400663622      0.74741275885514     -0.22410874756156
  C   -4.35506016799915      1.28016525868318     -0.99670162213897
  C   -6.22279391795687     -0.52357106327964      1.67252704991014
  N   -7.07789628585081     -0.97573364684598      2.28904010574812
  H   -4.27492025642531     -1.33022781325211      3.12292220206542
  C   -1.93088817084309     -1.87499374408238      4.14463023387701
  H   -0.10420926606512     -0.59669453203298      2.46301781509642
  H   -0.61392998115802      0.66573128302620      0.43699859983065
  H   -2.23480483093152      1.55083061564563     -1.14703409691820
  C   -4.74059521339441      2.06706989877498     -2.21514516484444
  O   -5.81614251794845      2.56797777058492     -2.33676612941504
  O   -3.81091512686046      2.19283127335901     -3.17956912551666
  H   -3.05708205446765      1.61509395939662     -3.01918264172941
  H   -6.42914487747351      0.91988492301737     -0.54661978349304
  O   -2.75016158108182     -2.01006233108110      4.99986767727653
  O   -0.71668825343439     -2.44684938911533      4.26274833676221
  H   -0.20937080483848     -2.37204398290071      3.44747563343255
