25
Coordinates from ORCA-job 502optt
  C   -2.19869147095255     -1.17526143609215      2.86793975556109
  C   -1.11264745046857     -0.52742718031449      2.24207988039272
  C   -3.46403685713827     -1.03295742242942      2.37617664581126
  C   -3.69726580533937     -0.23453302422542      1.23297990770698
  C   -2.60867304540367      0.42253994245617      0.59910593285420
  C   -1.30730767658992      0.25138440998883      1.13803325010407
  C   -5.00195606305659     -0.06538856418672      0.69192304400904
  C   -2.85833055318984      1.20967241707554     -0.55731346839131
  C   -5.21268536030045      0.70024195723041     -0.42498189675242
  C   -4.13116366066246      1.33975245415490     -1.06075662003096
  C   -6.11986216790782     -0.70178891901795      1.32848671070320
  N   -7.00719514726064     -1.22009103378382      1.83877389615270
  H   -4.30226623900973     -1.52703736398004      2.85081014980395
  H   -2.02519711251443     -1.78766696521652      3.74278729542924
  H   -0.11592759692706     -0.64746767598741      2.64513735224661
  H   -0.47288054584764      0.75895773753532      0.67619862728812
  C   -1.70484389420804      1.89142139903538     -1.23987823763397
  C   -4.39032284932023      2.23591788968599     -2.23829070829415
  O   -3.84993847162769      3.28794886437408     -2.38720056993447
  O   -5.30731724013406      1.79802840872759     -3.12023491919762
  H   -5.55464488734940      0.88269330857624     -2.94445725885297
  H   -6.22190153058012      0.83862818847528     -0.79260109586300
  O   -0.95583529910470      2.65358555644503     -0.70475015715947
  O   -1.58535800182112      1.49289249941922     -2.51272635090406
  H   -0.87890107328552      2.01634455205391     -2.92065116504882
