23
Coordinates from ORCA-job 506optt
  C   -3.86933107460239      0.19371584626902      0.13466433606238
  C   -2.85809817720481      0.87560436873968     -0.55702908733194
  C   -5.19241179566840      0.51949831333403     -0.03827347384380
  C   -5.56274864647322      1.56698608467326     -0.93405739487681
  C   -4.52345812765715      2.25133502958303     -1.62631308543827
  C   -3.15591290827946      1.88931030706648     -1.42603680012552
  C   -6.90647183500716      1.97530395584510     -1.18324992417506
  C   -7.18532364862328      2.99842684365598     -2.06088617930084
  C   -6.15418564405343      3.66644159508150     -2.73406604619120
  C   -4.85714234794113      3.29810068508039     -2.51905600179811
  H   -3.61378408917916     -0.60365361219090      0.81933716654073
  C   -6.13053536716856     -0.24965374597167      0.73035659932926
  H   -1.82637359940055      0.59084129809162     -0.39560961159753
  C   -2.05787978759332      2.60769423614592     -2.15606485261866
  C   -8.05053062407624      1.36970413276497     -0.55906621043894
  H   -8.21702720820785      3.27894323446596     -2.22343386281639
  H   -6.39226656024646      4.46828414815509     -3.41935593539555
  H   -4.06408085619101      3.81469964978737     -3.04088155742044
  N   -6.78791337648666     -0.92098314661170      1.38864865859053
  N   -9.03098393510139      0.96296873895522     -0.12424068319478
  H   -1.08883991312808      2.19806434088881     -1.87965242613999
  H   -2.05590170356456      3.67338252112857     -1.91972037766975
  H   -2.17163877414565      2.51085517506226     -3.23737325014930
