28
Coordinates from ORCA-job 519optt
  C   -1.17375826670902      0.45683940205307     -0.05802542841307
  C   -1.11584738241403     -0.94094674783573      0.11511074139628
  C   0.01563119010749      1.15722130886352     -0.19439980580675
  C   1.27612939824271      0.49905781810930     -0.04215557696057
  C   1.29576427367069     -0.91462209591198      0.14166581619156
  C   0.06069243398566     -1.63722174904747      0.16103607160327
  C   2.53389548931140      1.17750398511802     -0.04220342057191
  C   2.52973899174018     -1.57516651299552      0.34874179699191
  C   3.71435710483628     -0.89681871949211      0.33033103901769
  C   3.71398571985872      0.48717649367054      0.12436237704921
  C   -2.51739019918955      1.05617811630872     -0.12485707452872
  C   -0.05718551907119      2.53833689651253     -0.57629165988872
  H   -2.05180815053496     -1.48427145090510      0.17194920116290
  C   -0.02903637085022     -3.11074350895503      0.21039895177650
  C   2.68972482650874      2.60385476199416     -0.13530669805155
  H   4.64274969077522      1.04128541133235      0.12637890594221
  H   2.52218704065269     -2.63513814462673      0.55127606237799
  H   4.64816849796150     -1.41552169369080      0.49767398811192
  N   -0.17181222861307      3.62619166097288     -0.92279189519802
  N   2.95034843337279      3.72053593152370     -0.16818674480175
  C   -2.87449109663078      2.25143045982987      0.32748662096666
  H   -3.27942530911447      0.40239647089877     -0.53694537339325
  H   -2.17367293820497      2.93833327811052      0.78160342934340
  H   -3.90448395626700      2.57464924928128      0.25708105465996
  C   0.68444017932047     -3.96022190538004     -0.51801734158058
  H   -0.81953094358553     -3.49965819143887      0.84488071556081
  H   1.44902948543087     -3.62366934989452     -1.20728359935811
  H   0.50127960540932     -5.02495117440532     -0.46351215359928
