38
Coordinates from ORCA-job 530optt
  C   -0.91694558766107      0.36203197670245      0.27360360893301
  C   -0.87792523570900     -1.01523520960782     -0.02360735989205
  C   0.27506054348645      1.06127406799921      0.32356608910855
  C   1.52750511774869      0.41175298078215      0.10095816794155
  C   1.52446012113741     -0.97956537870606     -0.20203878943905
  C   0.28490816095731     -1.69386093363064     -0.26104518391636
  C   2.79185656213501      1.07298856277134      0.16479914180113
  C   2.75612658080026     -1.63494669400865     -0.44725185880565
  C   3.94753069552869     -0.97028237963350     -0.39347646339624
  C   3.96383263750231      0.39318756565154     -0.07904358383585
  C   -2.24550249943746      1.06251872508142      0.47199981273890
  C   0.17383247732113      2.47215012384135      0.57244145524187
  H   -1.81617370100401     -1.54785337648090     -0.06654143687455
  C   0.26813786792201     -3.18570464080372     -0.53452958433589
  C   2.96176766566225      2.46107905035420      0.49866766044474
  H   4.89979011013702      0.93173307576564     -0.01987500691237
  H   2.75782767224813     -2.68875141832889     -0.68246879592765
  H   4.87618544909606     -1.48911771913145     -0.58723201700060
  N   -0.02849270328822      3.58739953033069      0.75376732697927
  N   3.22979785988016      3.54517345743683      0.76137934280363
  C   -2.69224560388513      1.69332144454342     -0.85280123367209
  H   -1.95659023941044      2.40970352034996     -1.21747888258375
  H   -3.64049184073410      2.21525012810780     -0.71894405137803
  H   -2.83109299330851      0.91924164769711     -1.61089928892160
  C   -3.33957653052249      0.15450993335594      1.02866661149710
  H   -2.08598293736711      1.87102087784272      1.18760749588098
  H   -3.00485022587040     -0.38933239071055      1.91302622181945
  H   -3.68182627932779     -0.56922055888349      0.28664572112899
  H   -4.20176593738917      0.75992557368035      1.30833481402756
  C   0.69531518905232     -3.95597736193907      0.72242926779479
  H   0.74875805580406     -5.02535887010395      0.51362879590810
  H   -0.03907323721401     -3.80001657720949      1.51499865652716
  H   1.66404886328467     -3.62768596623566      1.09803476037494
  C   -1.07887368446129     -3.71005837455418     -1.02507490857181
  H   0.99142352788628     -3.38684109079265     -1.32826920073182
  H   -0.97334316529311     -4.75145885313653     -1.32972646972874
  H   -1.44844203659654     -3.14012465073842     -1.87812784208575
  H   -1.83241071911035     -3.67937979765849     -0.23611299294182
