38
Coordinates from ORCA-job 531optt
  C   -0.81843969074959      0.50638962691122      0.10406885014976
  C   -0.81382752530453     -0.85839841854884     -0.24219360481127
  C   0.40012718786899      1.11497610310120      0.36158269110501
  C   1.63647529769536      0.40013243302029      0.31275126631610
  C   1.60658436375667     -0.97705835352384     -0.04859477308136
  C   0.34868707919094     -1.56588456809657     -0.32278053364618
  C   2.90675817936289      0.98205987332210      0.60653478080322
  C   2.81402182650117     -1.74285527277874     -0.13628267292746
  C   4.00402517481090     -1.12215605217326      0.13600451693947
  C   4.04977992327007      0.22652354837772      0.51159619063615
  C   -2.11268658359965      1.29220328454753      0.13179748099547
  C   0.34840532738241      2.52237276501064      0.64848917657854
  H   -1.75091113096889     -1.35460678938522     -0.45234124028432
  H   0.29933029181990     -2.60846300192574     -0.60007730086944
  C   3.10602367039634      2.34012498316240      1.03023471849663
  H   5.00020257958601      0.69114037425919      0.73736575056012
  C   2.76822604263514     -3.21903007101088     -0.47926870283414
  H   4.93438913471636     -1.66742359536035      0.06912746869963
  N   0.18845541029452      3.64283807502408      0.83882862462796
  N   3.39131810957690      3.39277139963172      1.38659375387049
  C   -2.30746414752948      2.00468414947396     -1.21240642588173
  H   -1.47827145178334      2.67788302274898     -1.42799169754662
  H   -3.22739423274581      2.59027909262667     -1.19622415970949
  H   -2.38147948146336      1.27217573980597     -2.01928734028446
  C   -3.33370234593601      0.43919936903638      0.46697415143790
  H   -2.01583736258218      2.05787427375172      0.90356926486034
  H   -3.17653135617080     -0.15953615543643      1.36509165885445
  H   -3.59591594111186     -0.23099112419201     -0.35370132807323
  H   -4.19161984370609      1.08936642299262      0.63795203190308
  C   2.31182315245268     -4.02855249439747      0.74225023282105
  H   3.05075384907394     -3.93551383265462      1.54040476893927
  H   2.21890839883863     -5.08469393759982      0.48544735585079
  H   1.35547603086418     -3.68153184968087      1.13263460534065
  C   4.09366784666761     -3.77147714320940     -0.99698908782416
  H   2.03661595875888     -3.35418555259972     -1.27920038456408
  H   3.94801783664194     -4.79236402875545     -1.35050836687091
  H   4.84761437423323     -3.80711701906067     -0.20875076098235
  H   4.48485404725586     -3.17635527641444     -1.82269095959490
