38
Coordinates from ORCA-job 532optt
  C   -0.68599254892639      0.61374444065936      0.26882430678305
  C   -0.73874183291665     -0.78491188529195      0.44949935675935
  C   0.55024389121910      1.20519810549334      0.05202239896385
  C   1.75775232289688      0.44430935386776      0.02458629349159
  C   1.66180940977135     -0.95863665905644      0.20593913684291
  C   0.39287677332447     -1.54324240153345      0.41514133107789
  C   3.06914962825461      0.97549116012418     -0.16909400206644
  C   2.82103548799416     -1.76913587122171      0.18056285314529
  C   4.06856005118780     -1.24595871852127     -0.01303731177872
  C   4.16957373294804      0.14997111604007     -0.18511027403147
  C   -1.95761500341080      1.43684226257289      0.25643754000466
  C   0.54684450363738      2.62556527270647     -0.16514683730671
  H   -1.69475601986720     -1.25996683877868      0.61881950162160
  H   0.33681091124144     -2.61644663594227      0.55199366701871
  C   3.35256505526326      2.37384504619555     -0.34514737437871
  H   5.14201314446423      0.60305724146550     -0.33336379168064
  H   2.69776781357253     -2.83758401043212      0.32170842903656
  C   5.30907979830523     -2.10790794507132     -0.03654573321784
  N   0.43198479733673      3.75443351204272     -0.33755805927277
  N   3.69641908889572      3.45872709410419     -0.48992240592366
  C   -2.41984157735920      1.64233436890805     -1.19150566823561
  H   -1.65638486483535      2.14642338709002     -1.78349582214210
  H   -3.32533065534509      2.24985787222527     -1.21350188112590
  H   -2.64187156060415      0.67904441078152     -1.65619002552021
  C   -3.08169492263447      0.83527297580977      1.09622088876570
  H   -1.71769625511036      2.41752605074757      0.67141610925037
  H   -2.74613003943216      0.58276582187500      2.10290791035462
  H   -3.49511377815746     -0.06309701549068      0.63413516374470
  H   -3.89437835686400      1.55672802119938      1.18004970645478
  C   6.03199303588630     -2.00527043747980     -1.38076070952734
  H   5.37170283922091     -2.26999634423111     -2.20683949640808
  H   6.89394789119872     -2.67325311829950     -1.39885684128653
  H   6.39581806084769     -0.99007716004413     -1.55115484559613
  C   6.24937421842093     -1.75001519546479      1.11611584359030
  H   4.98281979925096     -3.14254059514154      0.09755642538471
  H   7.11863883250230     -2.40876151124979      1.11513738594793
  H   5.74686835885384     -1.84117267795930      2.07924683796389
  H   6.60944796896850     -0.72377249269875      1.01891999329643
