38
Coordinates from ORCA-job 534optt
  C   -0.83063307850056      0.28783232762171     -0.35976866484573
  C   -0.82158488775055     -1.12326830425779     -0.33887104022825
  C   0.31410836808492      1.03205345166761     -0.20669283716135
  C   1.57471990741642      0.39478062739559     -0.01218903941643
  C   1.58829983505101     -1.02211591778723     -0.00048781787488
  C   0.38267281397267     -1.74742740120181     -0.16618725336151
  C   2.82283974650157      1.05921298453610      0.17155120440541
  C   2.80764913985066     -1.72133015173658      0.17670307530449
  C   3.99976952362913     -1.07139766974177      0.33864232242107
  C   3.98172372650874      0.33976689818927      0.33631061413046
  H   -1.76840309648181      0.80964619112907     -0.51007532416849
  C   0.14641665184754      2.45798834650789     -0.26905504650771
  C   -2.13926736732935     -1.85419581384169     -0.47701701272525
  H   0.44472804717619     -2.82857599873853     -0.15580718111371
  C   2.96256796338460      2.48895116455013      0.21080014683942
  H   4.90928147932716      0.88191812314573      0.47773367774909
  H   2.76641273963979     -2.80350270165618      0.18405738231402
  C   5.33122565299486     -1.77462253464458      0.48802982178194
  N   -0.09296838557542      3.57791976262930     -0.33607116353093
  N   3.17913373001389      3.61449503107035      0.25918242080902
  C   -1.98757124218327     -3.33253095177654     -0.81241015062777
  H   -1.37359848642275     -3.48494112056320     -1.70093426190672
  H   -2.96743519546045     -3.77349373062120     -0.99530835110374
  H   -1.53407967309616     -3.87854130157266      0.01769783906514
  C   -2.96694191746514     -1.67782024082181      0.80110717196209
  H   -2.68163914930958     -1.37231905437067     -1.29704314412038
  H   -3.94465994176983     -2.14830384427983      0.69039768612372
  H   -3.11922476553671     -0.62511962571228      1.04030148635157
  H   -2.45466313532011     -2.14438201364379      1.64500004919411
  C   5.20790666437209     -3.25011029271024      0.84667775705435
  H   4.59722602268581     -3.40026568741758      1.73785052950619
  H   6.19605648625642     -3.66937832368338      1.03589294296728
  H   4.76474954266685     -3.81771491111892      0.02552770768795
  C   6.15546999357507     -1.60251154914461     -0.79288753048254
  H   5.86415557449570     -1.26950491978635      1.30023742397738
  H   7.14223148103464     -2.05186189606469     -0.67480529804281
  H   6.28710958601846     -0.55098811507101     -1.04893294925767
  H   5.65254564569747     -2.09244083647778     -1.62913719316880
