38
Coordinates from ORCA-job 535optt
  C   -1.06607793554810      0.23569272458933     -0.36466531117283
  C   -0.98789511104333     -1.16880305035488     -0.43364970260426
  C   0.05011463132164      1.01578629098561     -0.19454232019871
  C   1.34568196728401      0.42957363516373     -0.06863048193309
  C   1.43495740411884     -0.98931176808353     -0.13941935623946
  C   0.24780495444660     -1.74485826616138     -0.32828288788111
  C   2.54549062261078      1.17494857045646      0.12010449842267
  C   2.70589488235836     -1.64243711726889     -0.02591776878079
  C   3.82645735199676     -0.87255901810708      0.14571305480581
  C   3.75025526210204      0.52429665339389      0.22128495075639
  H   -2.02918973891117      0.72324805295955     -0.45886137864389
  C   -0.19053218488512      2.43282892711699     -0.16368946294541
  C   -2.27106481223537     -1.95639964626381     -0.58848455897924
  H   0.32630232041051     -2.81901250187081     -0.39276239765340
  C   2.59816812226577      2.60668329805066      0.22082068650932
  H   4.64976230400645      1.10822779512871      0.36195918807361
  C   2.80108163562492     -3.15596101788477     -0.04979671632536
  H   4.79933957940850     -1.33571160160618      0.22627442177892
  N   -0.50029284439307      3.53730869062307     -0.15337967251490
  N   2.75639538903950      3.73899103139526      0.31645684789910
  C   -2.05691624398953     -3.40518147809642     -1.00839048202268
  H   -1.45809238064547     -3.47924177655676     -1.91711672403847
  H   -3.01877630343656     -3.88286112907677     -1.19453281753153
  H   -1.55848067613392     -3.97354090000018     -0.21961152442186
  C   -3.07893779585973     -1.89206953986443      0.71271620105669
  H   -2.85381502317475     -1.45778736333958     -1.36989735764152
  H   -4.03413755705930     -2.40506093016291      0.59482913428370
  H   -3.27845772792904     -0.86328517316794      1.01315469040034
  H   -2.52593891648653     -2.37733487273302      1.51972521875772
  C   4.19687337840191     -3.68081378590261     -0.37582550568438
  H   4.59126060249770     -3.24009967579962     -1.29193061819228
  H   4.15616262867113     -4.76224594184251     -0.50715673481867
  H   4.89946419690286     -3.48032184972678      0.43487269646939
  C   2.33288335867814     -3.73504773755695      1.29233490467915
  H   2.13639200698470     -3.52012842007553     -0.83682085027319
  H   2.33797735283162     -4.82542710393895      1.25877982467955
  H   1.33018132225994     -3.40121440602748      1.55848737328453
  H   3.01120397750828     -3.41566959839341      2.08586093864017
