38
Coordinates from ORCA-job 536optt
  C   -0.71151105425974     -0.25838099519920      0.55817290698102
  C   -0.56775048259479     -1.63740144922832      0.38974581720506
  C   0.34774230177201      0.57361839752431      0.32063575553515
  C   1.62641987183578      0.03383554461246     -0.01364253779632
  C   1.81556796556090     -1.38873818078056     -0.00367044613860
  C   0.63559727036639     -2.22482353651779      0.08742565111390
  C   2.72055599806784      0.88424114757064     -0.35688827640389
  C   3.17318600775411     -1.88862435484725     -0.08431995215220
  C   4.18265900310041     -1.01110278273514     -0.39292613230646
  C   3.96169089770579      0.35505271146618     -0.58108261917396
  H   -1.66784135762275      0.16257651792878      0.83678424827220
  C   0.08185441018001      1.97401739432394      0.50008874037276
  H   -1.45449344821626     -2.24377090852882      0.48533696826850
  C   0.61638258926340     -3.70121771125887     -0.29756518310065
  C   2.61146241078107      2.30248076297030     -0.55854392524943
  H   4.77584641143666      1.00755140363003     -0.86539312098374
  C   3.57566451249946     -3.30470811820534      0.31685994935125
  H   5.19740994738794     -1.36575821711630     -0.47992358409337
  N   -0.24628570186196      3.05430128442310      0.70427309179293
  N   2.64610938646010      3.42742791050168     -0.78140136170591
  C   -0.72045061131834     -4.40515954580250     -0.06938800517253
  H   -1.04576319588869     -4.34274722089768      0.96970373091645
  H   -0.60558649328394     -5.46002985126106     -0.31969970289556
  H   -1.50880984941742     -4.00271823097354     -0.70759743020735
  C   1.00095232534627     -3.83981518347535     -1.77790458776390
  H   1.33100387474541     -4.24524407898512      0.31245277601581
  H   0.22353011659919     -3.39105384376340     -2.39933574810117
  H   1.08817815698674     -4.89251307516201     -2.05136453479032
  H   1.94035157855427     -3.34106991170660     -2.01463570669179
  C   5.04981066663267     -3.63892843323537      0.09360368475871
  H   5.34873396699836     -3.50495541144357     -0.94661407312658
  H   5.21314631800920     -4.68464231145201      0.35518845185585
  H   5.70562876936241     -3.03863930110587      0.72632761858704
  C   3.23923553526794     -3.52233551134128      1.79946887991974
  H   3.02752866962907     -4.02252282133973     -0.28562562925505
  H   3.87101566501729     -2.87826767655577      2.41433498286416
  H   3.43056252662223     -4.55790260428659      2.08496418428095
  H   2.20168504052086     -3.28431180774624      2.03217511901734
