20
Coordinates from ORCA-job 540optt
  C   -0.99993770349284      0.58302353891611     -0.00000089604401
  C   -0.94874105099198     -0.82300906729503     -0.00000021293554
  C   0.14336208591272      1.34187427902911     -0.00000027172287
  C   1.41959209545928      0.69754312178110      0.00000056174587
  C   1.44938293620420     -0.72305124766019      0.00000050534157
  C   0.24329289060106     -1.46500622203735      0.00000055507185
  C   2.67053591391870      1.37989620542677      0.00000029987253
  C   2.68587586461236     -1.40811329064125     -0.00000038922554
  C   3.86702762045023     -0.72509864471177      0.00000063285575
  C   3.85505995321496      0.67713359751818      0.00000073521982
  F   -2.18909862980734      1.15543562767439     -0.00000255068133
  C   -0.05395129366808      2.76090829784795      0.00000194169343
  F   -2.09869164244104     -1.48488514188194     -0.00000058068714
  H   0.26588390850040     -2.54679638478013      0.00000118612393
  C   2.79308191788827      2.81101072974429     -0.00000168658352
  H   4.78473943200219      1.22949528058535      0.00000051595961
  H   2.67344715717580     -2.49079028699726     -0.00000104459032
  H   4.81035946123830     -1.25318936615465      0.00000006379666
  N   -0.29907303520517      3.88078974715389      0.00000362036409
  N   3.00049211842795      3.93909922648243     -0.00000298557487
