20
Coordinates from ORCA-job 542optt
  C   -1.00372827199590      0.56678895586021      0.00000004901349
  C   -0.97828831925479     -0.83305242324066     -0.00000078828982
  C   0.13062607320696      1.34403586539395      0.00000045261857
  C   1.40865360325109      0.70752122753538     -0.00000015093325
  C   1.43009320254686     -0.71248602952060      0.00000005769323
  C   0.22969826383822     -1.46099380330297     -0.00000037450921
  C   2.65903719923861      1.39245864648039      0.00000009721166
  C   2.67848347393752     -1.37166309974544      0.00000034601821
  C   3.86799020263149     -0.71341540561140      0.00000074002919
  C   3.84257128168290      0.68683954168655      0.00000073962140
  F   -2.18954691883668      1.15955961518423      0.00000107411141
  C   -0.06971985634344      2.76186614687633      0.00000119590043
  H   -1.91503298222922     -1.37201627104533     -0.00000124051699
  H   0.28928767640309     -2.54003146602406     -0.00000061487706
  C   2.78235913821759      2.82228697605070     -0.00000165431698
  H   4.77322712527550      1.23752250957852      0.00000089134212
  F   2.66539460758156     -2.70559691359433     -0.00000033767607
  H   4.79669298419251     -1.26530723550111      0.00000082813157
  N   -0.31595350609498      3.88163692948648      0.00000171691578
  N   2.99079502275106      3.95030623345314     -0.00000302748768
