20
Coordinates from ORCA-job 543optt
  C   -1.01588942281347      0.56913568863217      0.00000091006470
  C   -0.99098642410336     -0.83141190505581      0.00000330068973
  C   0.12057164643702      1.34032722492806     -0.00000146110478
  C   1.39650600682642      0.69692537849804     -0.00000027144001
  C   1.42804260717726     -0.72416326804455      0.00000000665761
  C   0.21607882375941     -1.45913626462810      0.00000235388148
  C   2.64741929866277      1.38114935667924      0.00000145792617
  C   2.65917349823607     -1.41649288864291     -0.00000201812278
  C   3.82057520274828     -0.71188803455135     -0.00000342366001
  C   3.83434758833995      0.68480058523385     -0.00000101467765
  F   -2.20193100709094      1.16389375384586      0.00000020626629
  C   -0.07423270704184      2.75899445937839     -0.00000785549388
  H   -1.92822260738596     -1.36980470000037      0.00000494443355
  H   0.26833319407738     -2.54027116417128      0.00000296216404
  C   2.77213924235925      2.81246294406905      0.00000782615182
  H   4.77970150460326      1.20961142024591      0.00000049290940
  H   2.67887450422938     -2.49824369612215     -0.00000215936337
  F   4.99255720255542     -1.34962987098985     -0.00000625926462
  N   -0.31339317497304      3.88035146376014     -0.00001343272097
  N   2.98297502339672      3.93966951693566      0.00001343470331
