20
Coordinates from ORCA-job 545optt
  C   -1.03928292472861      0.60256821119292      0.00000026707708
  C   -0.96626791617342     -0.79443420965454      0.00000435325320
  C   0.11931618922741      1.34121524082595     -0.00000274675807
  C   1.39711487124009      0.70561362700127     -0.00000105563182
  C   1.42464494282438     -0.71747721701321     -0.00000103050334
  C   0.21899425015120     -1.45580612291246      0.00000219106875
  C   2.64971420836271      1.38950144298960      0.00000156461811
  C   2.65776201525960     -1.40951898624332     -0.00000318395064
  C   3.81690981247692     -0.70324704515124     -0.00000407491753
  C   3.83552142998169      0.69557046614427     -0.00000051745652
  H   -2.00519766106538      1.08801302906522     -0.00000135005404
  C   -0.05845045268249      2.76717584692778     -0.00001014754902
  F   -2.11042804646015     -1.47830526184302      0.00001038493618
  H   0.23766289478251     -2.53728071327605      0.00000368083390
  C   2.77308911205631      2.82118044137739      0.00001005363965
  H   4.78209480807207      1.21760687200949      0.00000194470645
  H   2.67920618973821     -2.49096095856533     -0.00000411248276
  F   4.98776845214035     -1.34074555295972     -0.00000708345232
  N   -0.30746142180383      3.88651120533524     -0.00001635597540
  N   2.97994924660040      3.94909968474975      0.00001721859816
