20
Coordinates from ORCA-job 547optt
  C   -1.03650124184551      0.60930701468299      0.00000060775593
  C   -1.01032024034669     -0.78877353943378      0.00000519445278
  C   0.12323842302232      1.34971713663069     -0.00000306464152
  C   1.39737566059625      0.70845143017864     -0.00000017258069
  C   1.42465227401868     -0.71767452382651      0.00000069187388
  C   0.19451437253783     -1.42074266969371      0.00000442664234
  C   2.64613638951673      1.39798519734544      0.00000300995360
  C   2.68077967882316     -1.37309482720698     -0.00000426515367
  C   3.86055930896004     -0.69572723973386     -0.00000545989923
  C   3.83332056542743      0.70244702821679     -0.00000064980750
  H   -1.98544870202907      1.12766307452291     -0.00000117946307
  C   -0.05130595320068      2.77440612252232     -0.00001247340134
  H   -1.91836233107520     -1.37431201756954      0.00000864502373
  F   0.20989588560290     -2.74906855298528      0.00000729335779
  C   2.76562931667492      2.82837672409201      0.00001230945087
  H   4.76170455455441      1.25679333585732      0.00000168251813
  F   2.71544775820443     -2.70106164706846     -0.00000734414243
  H   4.79046578408289     -1.24590901647455     -0.00000919114472
  N   -0.30871852015074      3.89217700910487     -0.00002006454056
  N   2.97959701662589      3.95531996083871      0.00002000374572
