20
Coordinates from ORCA-job 548optt
  C   -1.01360953068237      0.55017141328847     -0.00000221508464
  C   -0.96003041490998     -0.85585665285186     -0.00000030168163
  C   0.13330720660305      1.31878387301799      0.00000020137429
  C   1.41501644922955      0.68418856783727      0.00000184522381
  C   1.45689833541107     -0.73543809917647      0.00000155060155
  C   0.25042215273276     -1.47554917186413      0.00000242630600
  C   2.66473278076737      1.37293393267893      0.00000070558028
  C   2.69588440566354     -1.41537001275690      0.00000009412889
  C   3.87427447033217     -0.72801987441104     -0.00000076131039
  C   3.85217369897370      0.67423899557538     -0.00000131081279
  Cl  -2.56384408408277      1.28902193062579     -0.00000444836921
  C   -0.02787520412772      2.74279440477225      0.00000057261923
  H   -1.88474741492233     -1.41475772083383     -0.00000084638085
  H   0.30778578156424     -2.55686481212148      0.00000371259285
  C   2.79618138465404      2.80378006370541      0.00000149081082
  H   4.77873640840895      1.23210243214789     -0.00000273404323
  H   2.68675448438069     -2.49829188767415     -0.00000020877476
  H   4.82127357732018     -1.24951808816828     -0.00000250171395
  N   -0.23679274037134      3.87039295234159      0.00000099742665
  N   3.02610825305519      3.92751775386715      0.00000173150707
