20
Coordinates from ORCA-job 549optt
  C   -1.00962609217190      0.60386983130735      0.00000005002237
  C   -0.95415090109440     -0.79893376984851      0.00000548516036
  C   0.14764541125916      1.34559759158651     -0.00000303657635
  C   1.42695120173127      0.71372511123835     -0.00000027521305
  C   1.45169979922186     -0.70704990107417     -0.00000019365198
  C   0.24522360101301     -1.44480102821812      0.00000411230409
  C   2.68010513406844      1.39448169609061      0.00000321106099
  C   2.68901164394109     -1.39525333865423     -0.00000450794062
  C   3.87000610819766     -0.71392656723165     -0.00000610191816
  C   3.86234899490935      0.69029375289847     -0.00000109492877
  H   -1.96820511916065      1.10354219263840     -0.00000233947351
  C   -0.03450759194469      2.77094974417484     -0.00001395223820
  Cl  -2.43305310933949     -1.68705062629029      0.00001238424316
  H   0.28490492162967     -2.52617500857600      0.00000561002315
  C   2.80502768105110      2.82571151843986      0.00001447309464
  H   4.79400880322703      1.23941876583164      0.00000172262429
  H   2.67541887944851     -2.47795492306039     -0.00000652213216
  H   4.81292352737371     -1.24310983614117     -0.00000981121428
  N   -0.28758742668974      3.88947577475162     -0.00002238587751
  N   3.01450453332898      3.95345902013684      0.00002317263154
