24
Coordinates from ORCA-job 559optt
  C   -0.91375580810314      0.54553992481248      0.00004830478920
  C   -0.82369821022230     -0.86588648063036      0.00000130222787
  C   0.25557649871149      1.30174858739362      0.00002167567859
  C   1.53981359574258      0.68297519203750      0.00000880615076
  C   1.59668123423571     -0.73583286392479     -0.00000555798617
  C   0.39208250346638     -1.47613790860310     -0.00001318276428
  C   2.78620710810080      1.37995333643588      0.00002113840349
  C   2.83922477071115     -1.40705347177799     -0.00003138753726
  C   4.01367398102351     -0.71173353620593     -0.00002254228821
  C   3.97920178231922      0.69030910232955      0.00000768133170
  S   -2.44561683817067      1.39295851984562     -0.00006681787206
  C   0.08793863179931      2.72477979464985     -0.00003396287954
  H   -1.71921269817933     -1.46772373392396     -0.00005516202485
  H   0.45312932704121     -2.55770337206032     -0.00006344623129
  C   2.90530195518576      2.81167912997795      0.00005973925063
  H   4.90120570095123      1.25587380906067      0.00002525827827
  H   2.83728977730740     -2.49022851243102     -0.00005817995556
  H   4.96466675495786     -1.22576855207153     -0.00004010395355
  N   -0.16849774091234      3.84367461799492     -0.00007574417107
  N   3.12126811149622      3.93843283447624      0.00009054953746
  C   -3.64810908247769      0.05608095449061      0.00002859967388
  H   -4.61522512111301      0.55513874008852     -0.00013870201390
  H   -3.56987057578222     -0.55609920495124      0.89631047928350
  H   -3.56973565808913     -0.55642690701317     -0.89601874492762
