24
Coordinates from ORCA-job 560optt
  C   -1.07938679043311      0.76999655297809      0.03290307773014
  C   -1.13730634112893     -0.64350692835185      0.02732061495280
  C   0.11568737686383      1.44067566314399      0.01737533669192
  C   1.35726158857348      0.73358274752320     -0.00507798697753
  C   1.28774379912339     -0.68411792302655     -0.01139375848315
  C   0.03606611054714     -1.34661021711011      0.00528604189298
  C   2.64828761470553      1.33429704221556     -0.02140745561342
  C   2.47951824460308     -1.44659159544878     -0.03452117707245
  C   3.70285454806892     -0.84197001516100     -0.05066483667504
  C   3.78616864665106      0.55850549442537     -0.04377172639562
  H   -1.99894191364501      1.34158178824133      0.04975699989166
  C   0.02001426538636      2.87495767816070      0.02445955420738
  S   -2.74570413676638     -1.33709725981028      0.04989571287235
  H   0.04304763429521     -2.42806922235595     -0.00003457526312
  C   2.86207635116453      2.75515948808869     -0.01519603172600
  H   4.75021090561653      1.04808262227207     -0.05582033486649
  H   2.39918495077366     -2.52660943087011     -0.03915306961075
  H   4.60914713329878     -1.43156330708991     -0.06848244660138
  N   -0.16397565669885      4.00700695560349      0.03155715612029
  N   3.14104900933179      3.86777570091757     -0.01071298986505
  C   -2.40320449324872     -3.09888852901040      0.03183524932802
  H   -1.87099595345052     -3.38582879462167     -0.87374224238134
  H   -3.37430550359470     -3.58896983708584      0.04333325865281
  H   -1.84331739003705     -3.39889867362759      0.91624562919100
