24
Coordinates from ORCA-job 561optt
  C   -0.84308925000843      0.13273681528556     -0.00015805778778
  C   -0.59665095854350     -1.24535724521188     -0.00021853047392
  C   0.17846089854372      1.05063490773703     -0.00007408356667
  C   1.53508872424628      0.60676341569575     -0.00005607454640
  C   1.78700741796208     -0.79421971898769     -0.00013419515619
  C   0.69044919221266     -1.72076492956660     -0.00021802094971
  C   2.66216387570825      1.48057893860966      0.00004751316353
  C   3.12267972251752     -1.25910729543949     -0.00010369717641
  C   4.17985518961324     -0.39475367411443     -0.00000366309492
  C   3.94656921650477      0.98546565213403      0.00007199699285
  H   -1.86408018862777      0.49004638682428     -0.00015452652758
  C   -0.22091089955260      2.42858622074275      0.00001133446255
  H   -1.44247513125022     -1.91511393085250     -0.00025059645095
  S   1.07302001258507     -3.43290567478501     -0.00022798921803
  C   2.55553561258500      2.91375745287203      0.00013712524639
  H   4.77392595929332      1.68185776766601      0.00015198471552
  H   3.31335954564884     -2.32342367974621     -0.00016000821796
  H   5.19412179326987     -0.76906791476328      0.00001716589226
  N   -0.65370663021013      3.49134686858047      0.00007886073299
  N   2.59237857186862      4.06025152719138      0.00021369709637
  C   -0.54737842639583     -4.20448726646737      0.00018978261810
  H   -0.35287940879867     -5.27491337589616      0.00037626258920
  H   -1.10912472784471     -3.94553288853810     -0.89536366821475
  H   -1.10884011132743     -3.94516835897021      0.89581738787153
