28
Coordinates from ORCA-job 564optt
  C   -1.21519342338102      0.29238835971093     -0.07406671541402
  C   -1.06577252966441     -1.04784807914172      0.35787557745947
  C   -0.08086510526940      1.05966924750270     -0.28574304037317
  C   1.22271119473906      0.55055474945833      0.02411165766426
  C   1.34624575273284     -0.81671396080129      0.39000143131416
  C   0.16597538743809     -1.58719770399716      0.54944499105070
  C   2.40859574084970      1.34200021033373     -0.00370105406752
  C   2.63672090549204     -1.38350729748428      0.60663390718419
  C   3.75443177656598     -0.59258966863102      0.53153300237210
  C   3.63573706969975      0.77335810928541      0.25150377468004
  S   -2.87066823308199      0.79662540805529     -0.35207195610925
  C   -0.23242573086670      2.30732393330787     -0.97169239972078
  H   -1.95703769455603     -1.63440264730302      0.53807553571198
  H   0.26162026340717     -2.61204492968751      0.88112236720299
  C   2.41022145307690      2.76603218443200     -0.19162742545312
  H   4.51586548316993      1.40175291293785      0.23628925067620
  S   2.85032930462843     -3.10020731516180      1.00348578333708
  H   4.73034291259747     -1.02716689909315      0.69822401114708
  N   -0.40936892583531      3.25230993947826     -1.59878523872068
  N   2.50954650219073      3.90593194004624     -0.27492642328984
  C   -2.94675234427120      2.52756608532319      0.16564574351600
  H   -2.26154183987196      2.69595144596462      0.99397547742705
  H   -3.96850590364374      2.67125943529578      0.51143408354061
  H   -2.72429584567533      3.20844237961569     -0.64873841544973
  C   2.44541736409821     -3.83687109492207     -0.60142817478837
  H   2.55547414558042     -4.91278746614233     -0.47937041560148
  H   3.13881723884847     -3.48577094119275     -1.36199927104476
  H   1.42227508100185     -3.61092833718978     -0.89519606425118
