28
Coordinates from ORCA-job 565optt
  C   -0.84693789666646      0.24376050410682     -0.37292340184145
  C   -0.60347823685931     -1.14929886571273     -0.29734214878217
  C   0.22857914516641      1.12007189019268     -0.35971337702588
  C   1.56223727912894      0.64182089585560     -0.16700304595899
  C   1.77742330930855     -0.75701045920831     -0.12048903994444
  C   0.66408605076801     -1.62961614042029     -0.20277030488265
  C   2.71606582881305      1.47101602376847     -0.02182849944686
  C   3.07981096293742     -1.29049864940611      0.00782402141720
  C   4.17450531096561     -0.47204943480698      0.10106233859252
  C   3.96983192331811      0.92515768083080      0.09946938994703
  S   -2.53384168397398      0.69387846312167     -0.55857155979933
  C   -0.02192532597608      2.49245642326565     -0.68392656915794
  H   -1.45052633078849     -1.82224508734404     -0.31457948717931
  H   0.83978929082480     -2.69762413999560     -0.16233039913306
  C   2.65599428115265      2.90305873389528      0.08789968483283
  H   4.81763625772844      1.58903880829704      0.21426941545333
  H   3.17929802136873     -2.36727662519486      0.02971423481883
  S   5.83884964408731     -1.00080407681781      0.24751456564413
  N   -0.27912458260801      3.55979845510539     -1.01856223937783
  N   2.70291031947907      4.03948026777167      0.23614688543084
  C   -2.74502425960093      2.18119527817924      0.44982734547455
  H   -2.08059579032071      2.14016673431523      1.31052375553455
  H   -3.77724124705304      2.14634215311225      0.79254834992437
  H   -2.56594118088489      3.08764540393778     -0.11829226642539
  C   5.67767182702943     -2.78827018691874      0.20971330346288
  H   6.69057048205897     -3.17796300077411      0.28367767151650
  H   5.23608331717867     -3.12178098926822     -0.72808717893394
  H   5.09568328341764     -3.14939005988777      1.05619855583968
