28
Coordinates from ORCA-job 566optt
  C   -0.80151139107745      0.60950431303091     -0.41822776754358
  C   -0.72649919109400     -0.80276682163865     -0.35956808560621
  C   0.36094656531667      1.35962103078542     -0.29441855567036
  C   1.61091359475097      0.73039065030540      0.00483472375342
  C   1.65950526472967     -0.68270596989578      0.00780152386755
  C   0.47176019340348     -1.42363456881615     -0.19001474471125
  C   2.81504246597246      1.44511702522058      0.29981230308644
  C   2.89550459562390     -1.33961437545727      0.20780086902767
  C   4.04884279701340     -0.63720341872499      0.37041577603559
  C   4.02692993568180      0.77710913134269      0.42095613812929
  S   -2.40258099135427      1.24785004210510     -0.73549148893349
  C   0.31943864260810      2.74061426269616     -0.66948470992255
  H   -1.63942717301765     -1.37439755248805     -0.46078469366291
  H   0.52907125933078     -2.50523213141348     -0.17639165771438
  C   2.76164078754494      2.82628963381891      0.67261107927604
  S   5.58190874429106      1.52690808430282      0.72195053114244
  H   2.91243297476464     -2.42264986301204      0.20037712229820
  H   4.99909008092436     -1.14438313498511      0.47164722818742
  N   0.25945267436264      3.81507446024834     -1.06952113464748
  N   2.74813306355456      3.90252770448111      1.07218084317053
  C   -2.49970465616453      2.79645084515003      0.19280829233003
  H   -1.91556676559260      2.71586394681226      1.10739844052844
  H   -3.55193128574589      2.90548796302592      0.44797128870676
  H   -2.16338261751615      3.64564992200710     -0.39233062136421
  C   5.55959207287030      3.07522006304264     -0.21105269172106
  H   4.97236974871592      2.95107708359749     -1.11880230048676
  H   6.59853104152026      3.25780384391951     -0.47826850922555
  H   5.17061756858256      3.90042783053909      0.37579080166998
