28
Coordinates from ORCA-job 567optt
  C   -0.77807316726434      0.77051275756290      0.00073022434907
  C   -0.74011947498759     -0.64255843079109      0.00079843690434
  C   0.37326211919491      1.51573905827386      0.00034123843129
  C   1.65472391386046      0.89012224973606      0.00004171141408
  C   1.68405687486471     -0.52704628845210      0.00013099661294
  C   0.47759085427804     -1.26863967893056      0.00047410060417
  C   2.90914950326604      1.56846472695346     -0.00033572088413
  C   2.92038322811538     -1.21775603325680     -0.00012398739738
  C   4.11092305977073     -0.54164859012292     -0.00048713433069
  C   4.09040433217324      0.87176535022410     -0.00060470799960
  H   -1.73286755239188      1.28082210839392      0.00092848996597
  C   0.18751890559906      2.94131416038024      0.00022869304557
  S   -2.29888293175539     -1.44242315091934      0.00116914045451
  H   0.55271069861391     -2.34745984380653      0.00045954783029
  C   3.03554187271062      3.00055741649204     -0.00045704463382
  H   5.02318898811699      1.42126670401219     -0.00086811032868
  H   2.89036387526923     -2.29878059325448      0.00000791902933
  S   5.70146695722758     -1.27623635877772     -0.00073213840735
  N   -0.06537369942694      4.05996187424498      0.00016891048127
  N   3.24247775912912      4.12865834098577     -0.00058328806020
  C   -1.84202551397840     -3.17803491004541     -0.00075543820839
  C   5.31672556772117     -3.02919546885826      0.00053363016929
  H   -2.77919343458238     -3.73039168319327     -0.00102208439342
  H   -1.27774294074919     -3.43687842938127      0.89383203882060
  H   -1.27829778784932     -3.43506299750734     -0.89622115184387
  H   6.27594340586797     -3.54233916169807      0.00086582983160
  H   4.76381491090337     -3.31061763939862     -0.89433165794654
  H   4.76386967630283     -3.30938548886574      0.89582155648978
