28
Coordinates from ORCA-job 569optt
  C   -0.99001195976538      0.05516799028666      0.11793413552986
  C   -0.99487561911204     -1.27314506909509     -0.30334057840714
  C   0.19696386153659      0.73890535500476      0.21015778599672
  C   1.43957388278880      0.09585391377562     -0.06442272553044
  C   1.44212581268428     -1.31064728293548     -0.35402529965422
  C   0.17469348002354     -1.95194796376072     -0.54045930683061
  C   2.67528424396415      0.80975868213239     -0.05488069169357
  C   2.71589230702436     -1.98975351910685     -0.43036801029465
  C   3.87238371374944     -1.24512897920766     -0.41106092449947
  C   3.85338612013832      0.14055846488069     -0.25850319236841
  H   -1.91684891336738      0.56752257142125      0.33621002474347
  C   0.07826159291320      2.10627731342960      0.63595836852309
  H   -1.93681270573789     -1.77738653654118     -0.47339764748500
  S   -0.02397145465495     -3.57465723270646     -1.24245679169887
  C   2.79237829605121      2.23110090385708      0.10163313743217
  H   4.78076701663097      0.69672936662688     -0.27812092357527
  S   2.85178077677117     -3.75326761052364     -0.43664229177040
  H   4.83261240445298     -1.72423105304528     -0.51198885915551
  N   -0.14667071645043      3.16691729866189      1.01060906776794
  N   3.01261406247044      3.35391785303708      0.18875511451015
  C   -0.45704475226000     -4.51956014694294      0.23678944180353
  C   4.54037778125563     -3.99826398126010      0.15189353663452
  H   0.38640612459918     -4.55036947543684      0.92397267312587
  H   -0.68938919319702     -5.52754842567445     -0.10244108402136
  H   -1.33249711547991     -4.09128258473737      0.72039307074741
  H   4.59212488881601     -5.06031287163249      0.38585728152432
  H   4.73505091874736     -3.42048990710431      1.05386164938154
  H   5.28320514540726     -3.77727707340296     -0.61189696073567
