22
Coordinates from ORCA-job 574optt
  C   -1.02626620942120      0.59288787017515     -0.00000101691427
  C   -0.97941141317382     -0.81308819968292     -0.00000155379324
  C   0.12860696794008      1.35359325314042      0.00000041580675
  C   1.39973388504361      0.70456275492810     -0.00000013623134
  C   1.44913549021737     -0.71453485577348     -0.00000082270357
  C   0.22793823820300     -1.44941204962117     -0.00000061909770
  C   2.65305470663509      1.38389750809994     -0.00000117982022
  C   2.67897249494755     -1.40303073002079      0.00000031624495
  C   3.86127579001393     -0.71681490292244      0.00000124321165
  C   3.84079247228245      0.68215429635222      0.00000030680083
  O   -2.20469148317886      1.23946988389316     -0.00000120952194
  C   -0.05212047279075      2.77167560679223      0.00000499683380
  H   -1.90365923337140     -1.38043827828416     -0.00000238411530
  O   0.34145215246715     -2.79406424442483      0.00000002876705
  C   2.78604550683822      2.81439465780929     -0.00000394721717
  H   4.76737854091417      1.24034753919359     -0.00000027538424
  H   2.66528027222545     -2.48352292988163      0.00000036010058
  H   4.80589220827824     -1.24215707048021      0.00000280761343
  N   -0.28054002736180      3.89618712449458      0.00000854187135
  N   3.01854113161502      3.93777535655394     -0.00000584970418
  H   -2.93876735417592      0.61735702254701     -0.00000255448168
  H   -0.52828366414760     -3.20678961288803      0.00000253173446
