24
Coordinates from ORCA-job 592optt
  C   -0.94399648540441      0.55110700149987     -0.00000066138722
  C   -0.87618398863283     -0.85902150756541      0.00000276049764
  C   0.21894609494366      1.31277663989057     -0.00000516264105
  C   1.49652260198285      0.68629022741954     -0.00000177836385
  C   1.54599175560964     -0.73443069166934     -0.00000114078606
  C   0.34061359071284     -1.47107548847034      0.00000158569281
  C   2.74727464367119      1.37591459423658      0.00000382441694
  C   2.78616790377268     -1.41188717379559     -0.00000402569805
  C   3.96386690399398     -0.72330177606928     -0.00000531598529
  C   3.93583118568693      0.67941277749923     -0.00000025562269
  O   -2.10078119383344      1.22528091554621     -0.00000195327310
  C   0.03174498361515      2.73236798202148     -0.00002005347682
  H   -1.78033032093576     -1.44851346674664      0.00000567959759
  H   0.39934537602727     -2.55260062463637      0.00000232972617
  C   2.87324945695264      2.80706229477998      0.00001783123194
  H   4.86081175791126      1.24017527854601      0.00000325724976
  H   2.77859135292356     -2.49510080953626     -0.00000528364345
  H   4.91225269719856     -1.24199678342672     -0.00000834722985
  N   -0.19691478054222      3.85656076335892     -0.00003257146052
  N   3.09664220402025      3.93233798232223      0.00002957989829
  C   -3.32007988660774      0.50686486255804      0.00000384880993
  H   -4.10330565832498      1.25856516764998      0.00000397446124
  H   -3.40995233817977     -0.11361649492782      0.89417708854220
  H   -3.40995785656133     -0.11362167048485     -0.89416521055657
