21
Coordinates from ORCA-job 59optt
  C   -3.83191657325706      1.44838222770719     -0.48261169651164
  C   -3.97292688149617      0.09857868889415     -0.23885282785918
  C   -2.56912186561700      2.07191824145349     -0.40094678445224
  C   -1.44791558338276      1.30738436021383     -0.04062391642554
  C   -1.60579681917183     -0.05962621167969      0.19237691506205
  C   -2.84717621260427     -0.65074817203567      0.08805681839837
  O   -0.18824763300710      1.76640354141325      0.07227748928235
  H   -0.72607218670731     -0.62831958746935      0.45864075791588
  O   -4.91439705737066      2.17792669992416     -0.86582674909581
  C   -2.50170432381262      3.44806135506408     -0.78670576117990
  H   -4.95409575572560     -0.34669837020985     -0.32296744586648
  H   -2.94665807513254     -1.71219915841466      0.27386320028287
  N   -2.49064378645808      4.55005368162097     -1.10915923841991
  C   -5.46790974596929      3.00755208919627      0.15088498172488
  H   -4.73776873128101      3.73681822723987      0.50656299351089
  H   -5.81882438230704      2.39557900797653      0.98556539213962
  H   -6.30578676036202      3.52997227884086     -0.30237623402842
  C   0.07324944240389      3.12817317580286      0.38734237481110
  H   0.04414199916229      3.75561756920887     -0.50109639942895
  H   1.07249150706528      3.14153974912731      0.81488911792496
  H   -0.64391057496896      3.50048060612543      1.12072701221510
