28
Coordinates from ORCA-job 602optt
  C   -1.69356891181521      0.40349621066414      0.05417557885525
  C   -1.68624885192713     -1.01709720679942      0.07271155370903
  C   -0.53473208967082      1.13848081879996      0.02642534367695
  C   0.74490379114906      0.51409114375161      0.01316521418271
  C   0.75198716053703     -0.90657162442098      0.01330295448031
  C   -0.45059214777071     -1.64032443439961      0.03879401717726
  C   1.99936683503394      1.19084418928379     -0.00496921802313
  C   1.99248002149705     -1.59484624173963     -0.01647866087852
  C   3.17573014700051     -0.91917500494830     -0.03973559367360
  C   3.18028247297606      0.48631842014625     -0.03156719898799
  H   -2.62818121733933      0.94347211277411      0.05836317493621
  C   -0.72224154052264      2.56440688307066      0.00108052384666
  N   -2.86454921786794     -1.71465648124989      0.12313828885577
  H   -0.37474206632608     -2.71798320816940      0.03114093627426
  C   2.12556952627138      2.62224100977796      0.01065059832735
  H   4.11417370781101      1.03083188153282     -0.04434565047749
  H   1.97806449476457     -2.67782806215121     -0.01920274329775
  H   4.11471929224269     -1.45535688840458     -0.06259812247633
  N   -0.98308239845058      3.68121456065838     -0.02053820144088
  N   2.33123164404523      3.75088283738251      0.02447668422824
  C   -2.82550017825696     -3.15526254293005      0.01511904051289
  H   -2.38838791709268     -3.48477143357857     -0.93476453960991
  H   -3.83661931644511     -3.54613161204121      0.08357453285781
  H   -2.24082130886588     -3.59081601233906      0.82907935212360
  C   -4.12790457568062     -1.02217885763437     -0.02926921426485
  H   -4.93408892495244     -1.74847507180344      0.01991537539088
  H   -4.19897926122060     -0.49488429599769     -0.98653947620044
  H   -4.28373916912375     -0.30007108923475      0.77490544989567
