28
Coordinates from ORCA-job 603optt
  C   -1.00308755503877      0.39002365718700      0.19964206762513
  C   -0.94093609511687     -0.99952050855832      0.04578827095946
  C   0.12881763086517      1.16931984097022      0.21685986082574
  C   1.40715393472225      0.56906996398855      0.00938393623227
  C   1.46388951842912     -0.83637111450927     -0.19896516472641
  C   0.27021461283374     -1.63255158400050     -0.10796327333103
  C   2.63629188614840      1.29195167754680     -0.04101294160296
  C   2.69151167012310     -1.43757795532764     -0.56135522967022
  C   3.84517286200923     -0.71014964229810     -0.63810815793788
  C   3.82018553944809      0.65960526555201     -0.34733077753612
  H   -1.96358545570064      0.86798355166301      0.33861445377974
  C   -0.07978739275021      2.57399846057711      0.41832465275981
  H   -1.85796040504818     -1.56843717378707      0.08517142817388
  N   0.37948855158168     -3.02387077913921     -0.22245456034835
  C   2.73869453443952      2.70138822649072      0.22005297393166
  H   4.72944405875929      1.24428405383747     -0.38036503021559
  H   2.69350106176637     -2.48921807659115     -0.81020763324666
  H   4.77391046280430     -1.18077377921720     -0.92978450692786
  N   -0.35953610740939      3.67483476110122      0.58256550003168
  N   2.93886052539922      3.81267347108536      0.42240553175149
  C   -0.82695619269570     -3.74505812857623     -0.57698080243324
  C   1.09036635231359     -3.69477911141878      0.86476846998445
  H   -1.30023844325789     -3.28035373210418     -1.44031393193780
  H   -1.55213998106533     -3.79157578962438      0.24764403345711
  H   -0.55228404727065     -4.76664613586630     -0.83870816858155
  H   1.94210510200870     -3.10746849326379      1.19518993309031
  H   1.44482236948351     -4.66726821901080      0.52139014235862
  H   0.42679100221825     -3.84874270670642      1.72575892353433
