36
Coordinates from ORCA-job 605optt
  C   -0.85672591066928      0.49370941717066      0.09671338798790
  C   -0.74255436625727     -0.91443023398942     -0.07869388193250
  C   0.31448417188257      1.24635981181271      0.25173521778136
  C   1.59086809152353      0.65030409413599      0.01413252377456
  C   1.67547440399413     -0.74915782487177     -0.20215875763800
  C   0.47081358221161     -1.53844374954467     -0.16076497711120
  C   2.80752217263960      1.38969246038073     -0.05098596375539
  C   2.91220979325991     -1.34267132295402     -0.51792114833675
  C   4.06835576361440     -0.60802309148754     -0.55458099340732
  C   4.01161572271029      0.76523641039856     -0.30840224848655
  N   -2.09514166560414      1.06247960117988      0.16749040399026
  C   0.19528452587142      2.53128451408036      0.85866630707398
  H   -1.64500627673239     -1.50109162289490     -0.12835235497706
  N   0.58477642530544     -2.93209595159380     -0.27685700417932
  C   2.85929531778547      2.82310476746782      0.02721600357594
  H   4.90736240878645      1.36944395982215     -0.36032401932380
  H   2.92962764710720     -2.39581598707505     -0.76149055103214
  H   5.01133798910104     -1.07461168914198     -0.80288933271984
  N   0.02825643632828      3.51584031603001      1.42853737488361
  N   2.99677589050606      3.96245775897316      0.02527245450436
  C   -2.36209336823117      2.41275704201867     -0.30941808428087
  H   -2.52062054516819      3.11753130577647      0.50789292802275
  H   -3.25449444029285      2.38234573128284     -0.93807372447970
  H   -1.53219128328432      2.77194240635090     -0.91275228688000
  C   -3.27493764594424      0.25259344533040      0.38977379701269
  H   -4.06672847374009      0.89863634424019      0.76540353275561
  H   -3.08440092359915     -0.51009657202723      1.14303007824958
  H   -3.63278849411780     -0.22981888237761     -0.52784114912103
  C   -0.60326717455051     -3.65599883282469     -0.67930552686495
  C   1.24131397636167     -3.59580172361864      0.84833806351642
  H   -1.03445914943459     -3.20238690396540     -1.57042441553815
  H   -1.36810459440837     -3.69283264138032      0.11034171923204
  H   -0.31783400739515     -4.68111330048693     -0.91444492472755
  H   2.08490587109221     -3.01303396178972      1.20601803526074
  H   1.59808551017976     -4.57662002295724      0.53209900510836
  H   0.54043261916846     -3.73081507147051      1.68303051206195
