36
Coordinates from ORCA-job 607optt
  C   -0.71433906455182      0.57491489703323      0.07613814146886
  C   -0.70495348051754     -0.84996117074216      0.01093826524189
  C   0.51655137330488      1.23521983627907      0.14356768949489
  C   1.74907685975445      0.52123278058465      0.01529730275507
  C   1.72234807988842     -0.89257533183113     -0.04168557107327
  C   0.45989145366619     -1.54334236492331     -0.02477571137666
  C   3.03797116342327      1.11854843946986     -0.04594960452451
  C   2.90476022977615     -1.65147322965216     -0.10712689450791
  C   4.15447704443296     -1.05545707157217     -0.13448385397295
  C   4.18553432730431      0.35887977741739     -0.10719202409147
  N   -1.90674110290806      1.24940715824742      0.10115268659172
  C   0.50104417620796      2.60405891557804      0.55247188046933
  H   -1.64358727466503     -1.38303413750020     -0.02816917755323
  H   0.43907637777068     -2.62565434408424     -0.07130754955765
  C   3.24363121341206      2.53877949998811     -0.13603039372647
  H   5.12699093556871      0.88444147133222     -0.16002456003302
  H   2.80267055839733     -2.72694425252015     -0.13685586426416
  N   5.32491951712324     -1.78226549599334     -0.21380250817238
  N   0.41758417457182      3.67444201337485      0.96229918220104
  N   3.50329222953480      3.64923628033054     -0.26328786538886
  C   -2.09017809283540      2.52248406848479     -0.58052093003893
  H   -2.19097810496844      3.35538832188804      0.11685085812773
  H   -2.99057128423419      2.45848378747265     -1.19635369104210
  H   -1.24552432340722      2.72738587108763     -1.23398887374433
  C   -3.13313990262154      0.55963778735647      0.43875493951728
  H   -3.85802071411554      1.29656645227449      0.78265840430155
  H   -2.96689147282690     -0.14598281325118      1.25080637676140
  H   -3.56813540920548      0.02692339064290     -0.41637173385475
  C   5.24714360090977     -3.21521307819889     -0.04266637181774
  C   6.58281885920398     -1.12362015282787      0.07546929893014
  H   6.59414241362340     -0.66056225609260      1.06928455387252
  H   6.80368941228080     -0.35340018632787     -0.66523941295782
  H   7.38217569049386     -1.85822799969367      0.02901027916019
  H   4.63323842674989     -3.66436192765926     -0.82587935810652
  H   4.82315232461108     -3.49804434356380      0.92958917656020
  H   6.24495978484699     -3.63803059240839     -0.12256708564910
