36
Coordinates from ORCA-job 611optt
  C   -0.81850990907668      0.34075164147433     -0.55765061477717
  C   -0.73795592064891     -1.03629525009154     -0.37522719164657
  C   0.25706852325989      1.16068161849191     -0.30297387381344
  C   1.52043065501247      0.59326491029283      0.03655191063521
  C   1.65687441610130     -0.82807440577079      0.01037813317201
  C   0.45883538521057     -1.63506687546502     -0.01680350018342
  C   2.65365964588927      1.37796484927694      0.40205769722977
  C   2.98674412119406     -1.39270697752655      0.01310375631344
  C   4.04805396815427     -0.59111526484065      0.40073398780623
  C   3.86562382788991      0.76864317853580      0.63329243548554
  H   -1.76154310864155      0.78987760302386     -0.83927711820059
  C   0.02627105463706      2.56573118927113     -0.46410648052145
  H   -1.64243266368256     -1.62059657713413     -0.44438116074985
  N   0.49600832672251     -2.97605876486564      0.31142359018895
  C   2.61362848310725      2.79458240529937      0.61401570981392
  H   4.70665874845438      1.37796623279188      0.93625219408659
  N   3.20500344307989     -2.70292726826723     -0.36425266175564
  H   5.04724082926967     -0.99499963384498      0.45331601754064
  N   -0.26426115769975      3.66135787767086     -0.64677376014188
  N   2.69118610951895      3.91815723084877      0.83694250197322
  C   1.19311418542013     -3.41827675329059      1.50809554856159
  C   2.60088248386578     -3.22674013596379     -1.57851854537367
  C   -0.63199261719188     -3.81347820615086     -0.02773096618818
  C   4.47310921365621     -3.32175555495286     -0.05187274099523
  H   -0.93038343938979     -3.64702561015297     -1.06255982574733
  H   -1.49979334295970     -3.64549932854925      0.62414167396060
  H   -0.32844626846887     -4.85536098260339      0.07740185864728
  H   1.83972224628957     -2.63513619976187      1.89175736600519
  H   1.80099863816642     -4.30105240336714      1.29563490337245
  H   0.46417894767757     -3.67244292812762      2.28619520017912
  H   1.81351327245100     -2.56978151348069     -1.93484265175237
  H   2.17573878571779     -4.21740057547747     -1.40011006127911
  H   3.36165394145495     -3.30695699384018     -2.36344352998225
  H   5.29114373023076     -2.96652839763468     -0.69287606506045
  H   4.37372889212126     -4.39764429372630     -0.19775547325851
  H   4.73711655320666     -3.14087784209142      0.98984173645538
