21
Coordinates from ORCA-job 61optt
  C   -4.00576175679318      0.81018721466804      0.01924830086557
  C   -3.55978040745821     -0.51644644034074      0.00645208908662
  C   -3.07056533320096      1.85042258515750      0.09116772487116
  C   -1.70079300737037      1.52026496004665      0.13476029472388
  C   -1.26484556963017      0.22436170246395      0.11718851532747
  C   -2.21008315337605     -0.81014092973440      0.05624091776784
  H   -0.98753547494788      2.33171586150393      0.18910217302011
  H   -0.21399848995650     -0.02399675374462      0.15222013735728
  O   -5.34447231370472      0.92384924026739     -0.03307110237755
  C   -3.38288457694577      3.24484088184211      0.15797280932204
  H   -4.31699324388890     -1.28346117467239     -0.04935448990038
  O   -1.71207981644529     -2.06144822081603      0.04606757521008
  N   -3.55550192563963      4.37870775037985      0.22634636465838
  C   -5.97675364163664      2.18076963019509     -0.21961570321953
  H   -5.85952906503478      2.81859071029930      0.65533526349959
  H   -7.02866019911926      1.95321764385493     -0.36866474931655
  H   -5.58328464373881      2.69021843421591     -1.09976751912610
  C   -2.62201568395544     -3.14122707117311     -0.00988491864709
  H   -2.01876387565105     -4.04425537973153     -0.00328288580227
  H   -3.21645308563883     -3.10476238891869     -0.92588039426205
  H   -3.28641473586749     -3.13809825576315      0.85741959694150
