28
Coordinates from ORCA-job 622optt
  C   -1.19671449026406      0.52999163626540     -0.59942990962492
  C   -1.08786707757368     -0.82629916679789     -0.99471647761402
  C   -0.06889185469289      1.20500000763426     -0.14299152795822
  C   1.19654827240125      0.55329565437558     -0.05208484103896
  C   1.27231675000306     -0.81124536352118     -0.43160199578990
  C   0.10730765007923     -1.46485673031514     -0.90314524358053
  C   2.39879732501993      1.16877837880325      0.40377939474565
  C   2.49602072327314     -1.50999188508005     -0.35482578108487
  C   3.63222054561851     -0.89299221751833      0.08636683192789
  C   3.57638205791252      0.45457753357239      0.46729411572926
  C   -0.27937074186422      2.57832557947484      0.20000682683307
  H   0.18949826265116     -2.49898500064210     -1.21460766117871
  C   2.47286091637895      2.53875623673015      0.82764773237475
  H   4.46681678511325      0.95713529179381      0.82008895434362
  H   2.51353127292743     -2.55019362667850     -0.65623413094288
  N   -0.60920071355457      3.65660057190493      0.41839879049226
  N   2.62765122357601      3.61717309195287      1.18706016934436
  N   -2.39847943334843      1.21284073497325     -0.71528877518660
  H   -1.95872542273019     -1.33281342671645     -1.38533663835001
  H   4.56881219720180     -1.42950451461380      0.14478862421999
  C   -3.67917342070093      0.69637213796706     -0.88865504258940
  H   -2.35189780785983      2.21311909232606     -0.86345277382327
  O   -4.51974915871880      1.28711795325740     -1.49591826681150
  O   -3.91835436154171     -0.50268190325125     -0.32765245571415
  C   -3.43926207065049     -0.79834797878710      0.98651008664793
  H   -2.73290974835842     -1.62561129210487      0.93818982873067
  H   -4.30377826717662     -1.08708562560568      1.57978138741464
  H   -2.95780941312140      0.06755483060106      1.43856877848387
