28
Coordinates from ORCA-job 623optt
  C   -1.09814306008816      1.30961406536546      0.00259718799567
  C   -1.36570168465470      0.11521738446219      0.70410059919193
  C   0.18082845521227      1.63500538508109     -0.38102415708834
  C   1.28838588844875      0.79608825243583     -0.06074174485313
  C   1.00756572072453     -0.38611257199465      0.67526755802080
  C   -0.31990214687219     -0.70680081645653      1.03033733246198
  C   2.64694997767541      1.05049893220784     -0.41202993567483
  C   2.06264510483262     -1.25761721416546      1.04105442342924
  C   3.35225061614548     -0.98219447646221      0.69545856037035
  C   3.64446449673571      0.17994838395718     -0.03779915587618
  C   0.30877974938749      2.87478646423094     -1.09730888507782
  H   -0.50560883238002     -1.62668848292045      1.57241276663475
  C   3.06769799556010      2.19637109177651     -1.16991267840836
  H   4.66398172963819      0.40408742896422     -0.31992929135132
  H   1.82076734488533     -2.15132911291331      1.60269374761088
  N   0.30325623136667      3.87348979277746     -1.66107700536536
  N   3.50271656478682      3.06999072601320     -1.77256402819706
  N   -2.66345367963709     -0.21675275458842      1.12063514131960
  H   4.15367525377063     -1.65076326378551      0.97820894059610
  C   -3.87479642843224      0.27667410855295      0.65901000900783
  O   -4.83416739080663      0.35503770634771      1.36882011564529
  O   -3.91416049724849      0.65973400301283     -0.62836618373053
  C   -3.26843777421976     -0.10502550510175     -1.64820591545018
  H   -2.49494662991185      0.49923700346529     -2.11996329231124
  H   -4.02997525242969     -0.36025719274758     -2.38164961223862
  H   -2.82785625388055     -1.01556034117229     -1.24504056742357
  H   -1.90669149447869      1.98844485648015     -0.23228423410381
  H   -2.75080400412987     -0.62207385282268      2.04041030486593
