36
Coordinates from ORCA-job 626optt
  C   -1.53474265277679      0.83046196092137     -0.09756491811326
  C   -1.72855696700295     -0.56693210486372     -0.05312414884953
  C   -0.23212363432623      1.32972317309758     -0.08437802915571
  C   0.89317554885027      0.46052571662410      0.00390821986692
  C   0.67430888542754     -0.93858242786849      0.09676721204743
  C   -0.66493887847267     -1.41517676028822      0.03507812585469
  C   2.24822675819202      0.90885535409063      0.02826364565691
  C   1.76109666682354     -1.82144496742220      0.27312174172828
  C   3.04377428951760     -1.35666510417187      0.32041934969153
  C   3.28511800570092      0.01549884920398      0.18101655108271
  C   -0.12085492815821      2.75400751022455     -0.14164124904909
  C   2.63212813044691      2.28548210833500     -0.10937500785419
  H   4.29755328180520      0.39588683511899      0.19488899315053
  H   1.56785879946817     -2.87906537349471      0.36834681138829
  N   -0.21766772151869      3.89801607227930     -0.18574614793658
  N   3.04041462336797      3.35193472164634     -0.22013874834898
  N   -2.58269039907748      1.73475442828416     -0.18316507151987
  H   3.87190283452744     -2.03794761071214      0.45532262939586
  C   -3.95529653261300      1.60033252302562     -0.15489364084352
  O   -4.68328631492067      2.54992756258410     -0.25269569936246
  O   -4.38136985891652      0.34201975378394     -0.00643246434864
  C   -5.80605564270820      0.20517078627271      0.01806430174068
  H   -5.99567979673822     -0.85685892970407      0.13875603877698
  H   -6.23329854450819      0.57009113642765     -0.91345797911930
  H   -6.22234600584173      0.76917564434390      0.84995537892385
  H   -2.32333264054026      2.71073706795969     -0.26827683306121
  N   -0.92891142182766     -2.80501233000886      0.11997835683074
  C   -0.51938029958840     -3.67170215593534     -0.88062905294735
  O   0.19929279077833     -3.35690708414186     -1.78242796174276
  O   -0.96334645847864     -4.93628063332844     -0.76603770830216
  C   -1.72259069519102     -5.35994057073389      0.35428932157514
  H   -1.20886790466656     -5.13425715045904      1.29011581643687
  H   -1.82883411077668     -6.43568796028086      0.25205930799365
  H   -2.71963651861497     -4.91085966257921      0.35071252907106
  H   -2.72517618447068     -0.96853670293893     -0.11162622265340
  H   -1.76325650317145     -3.04511367529174      0.63018655199586
