21
Coordinates from ORCA-job 62optt
  C   -4.30386016849031      0.86674210082342     -0.07384310029461
  C   -3.88088079189730     -0.45763850599068     -0.28645394958616
  C   -3.33735924122580      1.83290291955525      0.23066680065744
  C   -1.97884016485136      1.49311162381740      0.26974110233628
  C   -1.57981129811088      0.19675679716220      0.02907344526144
  C   -2.53711166875691     -0.77724817533011     -0.23693266286501
  H   -1.25907754592847      2.26566558818209      0.50233162802193
  H   -0.53111156071711     -0.06372820464896      0.05608328627024
  O   -5.62911758750346      1.09132671815586     -0.15743823585965
  C   -3.69512057538614      3.17952405270989      0.56700286581358
  O   -4.78509566957038     -1.42289296761405     -0.60664878408869
  H   -2.25686246144064     -1.80474746788808     -0.42920539012901
  N   -3.94589976858248      4.25980987956624      0.86395244729012
  C   -6.10982753294133      2.30732664550653     -0.72643799197696
  H   -6.23975339967943      3.07349479882893      0.03478015225651
  H   -7.06871809095845      2.06494771033978     -1.17784150104188
  H   -5.42397314285762      2.66840319684562     -1.49436593889696
  C   -5.63415277790235     -1.82267438132531      0.46371814433286
  H   -5.03921387628543     -2.24662790351528      1.27687542328566
  H   -6.29647601276965     -2.58497818207551      0.06161203590466
  H   -6.22078666414430     -0.98166624310525      0.83332022330821
