36
Coordinates from ORCA-job 630optt
  C   -1.35458860589191      0.23363689660398      0.10506957535544
  C   -1.29407867204696     -1.17601219761124      0.13616366608477
  C   -0.19555601295206      0.97216020811307      0.05002305986113
  C   1.08763927827149      0.35919886448965      0.02296443793298
  C   1.13252442653910     -1.05812156596540      0.04738069793099
  C   -0.06909314995439     -1.79299657169492      0.10601778955789
  C   2.33856358382911      1.04025327412432     -0.02657915042301
  C   2.36495480983808     -1.75462222930991      0.01633664142447
  C   3.55153443056449     -1.07187432046872     -0.03576076957508
  C   3.51731032790021      0.34280686685224     -0.05530753760582
  C   -0.37659546223083      2.39807223291922      0.01501950990219
  H   -0.00566185370304     -2.87543761680623      0.12750791311197
  C   2.47131668091493      2.47155471934723     -0.04874098484801
  H   4.44644059672765      0.89775773132727     -0.09368171822907
  H   2.34631089602995     -2.83123680021377      0.03573974509363
  N   -0.60760058440159      3.52102850088759     -0.01050625176087
  N   2.69333977432636      3.59647709321017     -0.07029072698291
  H   -2.30903241401866      0.73323340618500      0.12594709699388
  N   -2.43642207392149     -1.98754713184900      0.17968797789587
  N   4.82830249945016     -1.63817120842488     -0.07086207062508
  C   -3.74239779008108     -1.57726292967287      0.32855517282553
  H   -2.24946990525052     -2.97423398718481      0.13930262983765
  O   -4.09454754145348     -0.43840791772151      0.43677045412598
  O   -4.65758623145270     -2.56562846183077      0.34769284217258
  C   -4.30622545361270     -3.92923029174877      0.19705027572547
  H   -3.82282591944624     -4.11180956949759     -0.76572857497330
  H   -5.24023867223399     -4.48194379393690      0.23021579204008
  H   -3.66946419214428     -4.26994983244924      1.01768700357910
  C   5.27164605097785     -2.93809275270140     -0.08234894791723
  H   5.60182336196230     -0.99199172743133     -0.10101248808129
  O   6.44146674954064     -3.21562511410509     -0.12093531206903
  O   4.28383490171625     -3.83666652242079     -0.04706099328181
  C   4.72577667062168     -5.19741913124287     -0.05693887339478
  H   5.35518425229154     -5.39371722426161      0.80850032805521
  H   5.28932260124432     -5.40218286344342     -0.96479736414151
  H   3.82261264204972     -5.79847803206657     -0.02059084559803
