26
Coordinates from ORCA-job 638optt
  C   -0.92473418949832      0.47279001569676      0.01673664033861
  C   -0.95226427454809     -0.93436099433237     -0.00665345209338
  C   0.23014919926664      1.21385376440519      0.02601074856604
  C   1.48787011153015      0.52957883896234      0.01228482179317
  C   1.49249234960215     -0.89205339465559     -0.01241967851113
  C   0.25338798310777     -1.59534220967397     -0.02103583909291
  C   2.76476553840686      1.17443216728565      0.02077813122407
  C   2.71351272298299     -1.60608347837267     -0.02883553275589
  C   3.91081605490435     -0.95181630713533     -0.02144691077000
  C   3.93524377634593      0.44912932956669      0.00390219404169
  C   2.94466398560074      2.60018061039564      0.04843611652152
  H   4.87824713612435      0.97859436976810      0.01110717532540
  H   2.68193028962557     -2.68817394599284     -0.04784551197715
  N   3.18372445816970      3.72262945987092      0.07000602216855
  H   -1.87315414369002      0.99647255820239      0.02749910416466
  C   -2.25400409803198     -1.67992184966782     -0.01574192090109
  H   4.83963932305281     -1.50521849925858     -0.03472044488456
  C   0.10890179625052      2.71168936233231      0.04938874745296
  C   0.25655521909044     -3.02844155396673     -0.04613790929125
  N   0.24556056845581     -4.17670563348510     -0.06625572374109
  H   -0.94225991033707      2.99186621094233      0.05404624475966
  H   0.58060356960971      3.16947481410550     -0.81976668707424
  H   0.58112346401422      3.14265150838710      0.93184463237452
  H   -3.09700839495873     -0.99263165611220     -0.00200253900028
  H   -2.32684056408338     -2.33985376740130      0.85019443728119
  H   -2.33156197099313     -2.31030971986643     -0.90303286591904
