26
Coordinates from ORCA-job 639optt
  C   -0.99957097076925      0.46011728468191     -0.04190316476885
  C   -0.97330512014211     -0.93449515205442     -0.07559655904091
  C   0.15074348154731      1.20467217334658      0.00192389155207
  C   1.41461595654072      0.52828034850688      0.01539944305677
  C   1.46607434166094     -0.90484181271476     -0.01680496782984
  C   0.22153802911169     -1.61027465118738     -0.06489979631459
  C   2.65919054280126      1.23378625350702      0.06119815633987
  C   2.72989234099683     -1.58128011426285     -0.00013844376780
  C   3.88019979732040     -0.83669863614479      0.04352711750466
  C   3.85400455535161      0.55799168622624      0.07373382080260
  C   2.79603730168986      2.66346915899910      0.09953873506788
  H   4.77769465452503      1.11953736293120      0.10903642113714
  C   2.87468610549683     -3.07789647570657     -0.02661837559024
  N   3.01974171481610      3.78901685829241      0.13124678887355
  H   -1.95599673507842      0.96600708736484     -0.05193526155224
  H   -1.89696813171251     -1.49598326833727     -0.11249016076685
  H   4.83656868433157     -1.34263771400411      0.05615797235727
  C   0.00590804043012      2.70120085816551      0.03283084825286
  C   0.08479743004234     -3.03978986545291     -0.10964021134922
  N   -0.13843286821852     -4.16501354424020     -0.15351382687855
  H   -1.05073047693377      2.95902303716603      0.01340208708583
  H   0.48708607686696      3.17546429537527     -0.82168252674724
  H   0.44523397485703      3.13556702030348      0.93004525277480
  H   2.38839254483724     -3.55001035919886      0.82620191617748
  H   3.93115131595100     -3.33581713420827     -0.00022805143681
  H   2.44062741367970     -3.51439469735405     -0.92534110493961
