21
Coordinates from ORCA-job 63optt
  C   -2.69599207564123      0.47278173301506      0.08118744983168
  C   -2.58284794019458     -0.91208058492374      0.08016610586452
  C   -1.53819835867939      1.23611398541349     -0.00027218800259
  C   -0.28007961492499      0.65283273020929     -0.08151061052076
  C   -0.18679278293095     -0.73350456299519     -0.08189418021419
  C   -1.33257470737811     -1.52497861966472     -0.00157161741198
  H   0.61707858640841      1.25074320239806     -0.14403881149279
  O   1.06411789463717     -1.23995278456780     -0.16343940153511
  H   -3.67179630832903      0.93112319634338      0.14460018259822
  C   -1.64498114279467      2.67027195660190      0.00056061542974
  O   -3.74500605745205     -1.59836016916100      0.16166191782391
  H   -1.25246594728362     -2.59967294516328     -0.00291198179355
  N   -1.73034538638720      3.81428385224007      0.00125124790794
  C   -3.69369409700567     -3.00826291323076      0.16528317476950
  H   -3.25242294900069     -3.38967454796363     -0.75932552690237
  H   -4.72290915782827     -3.34732624187267      0.23956541049267
  H   -3.12676336790895     -3.38056869069792      1.02262054336105
  C   1.22262847654530     -2.64182391146710     -0.16432635710036
  H   0.83744156739800     -3.08313437507090      0.75866060140141
  H   2.29115634359846     -2.82452508705320     -0.23226852584363
  H   0.72224702515212     -3.09526522238929     -1.02401804866332
