28
Coordinates from ORCA-job 649optt
  C   -0.66875905560701      0.72000441160940     -0.06805472703253
  C   -0.65385667044017     -0.67745398825434     -0.00514578249173
  C   0.48662227515757      1.46834087690253     -0.13161128494363
  C   1.75327236636960      0.79659596660226     -0.11775922735070
  C   1.77115272869417     -0.62311056133634     -0.09195499227671
  C   0.54481113457152     -1.34092439245990     -0.03207138162881
  C   3.02230367463989      1.46272033879638     -0.10578828308061
  C   3.00505533224819     -1.31642009027822     -0.10901500358125
  C   4.18627857643921     -0.64651958855215     -0.13884339438334
  C   4.22408013169787      0.76658097527474     -0.13406579826009
  C   3.12854777624507      2.89377542752526     -0.03344879551867
  C   5.51381898086118      1.47408364755057     -0.13678913531886
  H   2.99319353580128     -2.39884534504827     -0.08403343305604
  N   3.30522484891424      4.02644462167678      0.03075084910780
  H   -1.61850714739784      1.23584140354474     -0.10583143278723
  H   -1.57977928706636     -1.23428477524823      0.03927371587192
  H   5.11607195236909     -1.19748208488602     -0.12620920351589
  C   0.34064871602139      2.93308730740790     -0.25319155894792
  C   0.56285278927770     -2.77465961237301     -0.00130953921186
  N   0.58638107020931     -3.92206395436819      0.02314629972294
  C   -0.48930939402411      3.64495109354221      0.49756046092898
  H   0.92874155069486      3.43218213639169     -1.01250415228524
  H   -1.06707955275605      3.18874824064675      1.29283433266159
  H   -0.59377961846930      4.71168154578529      0.35418815164115
  C   6.66236399285937      0.94869576151760     -0.54856534402433
  H   5.49995428869765      2.50337631357444      0.20101336804075
  H   6.73990004809649     -0.05918871781389     -0.93623076666194
  H   7.57172495589510      1.53330304226997     -0.52714394161775
