38
Coordinates from ORCA-job 652optt
  C   -0.84530079934961      0.53871298156189     -0.89230309722316
  C   -0.75360357068467     -0.78025344883451     -1.33210865345165
  C   0.20049038422901      1.18064592701945     -0.27579138761216
  C   1.42674230572995      0.45042839390937     -0.09309392213654
  C   1.44465499015179     -0.97609435356658     -0.28922745199251
  C   0.34361982223591     -1.53992635062458     -1.01103968029937
  C   2.66778110488085      1.06484703990681      0.27202007052569
  C   2.54042868599408     -1.75373730245252      0.22530097271365
  C   3.66271432127527     -1.08404551611315      0.64713893050482
  C   3.76376065314701      0.30470728830762      0.59629994774284
  C   2.95218030651907      2.46732299620521      0.18751593782807
  H   4.69642189962478      0.79628927168300      0.83749969224165
  C   2.58031134693521     -3.26364403871203      0.46488038213090
  N   3.31736141509361      3.55338600603357      0.11367655218602
  H   -1.77265519809376      1.07562838262161     -1.04806743537723
  H   -1.55566947439582     -1.22441098795658     -1.90573276781714
  H   4.50190842221586     -1.65288614917435      1.02752711285041
  C   -0.13251848810416      2.58457887473798      0.23114960169929
  C   0.32391731667024     -2.84691557732970     -1.59949827411303
  N   0.20780168376499     -3.84330192379808     -2.15808959571333
  C   0.14992067060191      3.69730090746504     -0.78628190222473
  H   1.20453967775395      3.81346468943862     -1.01346992856499
  H   -0.21307782237463      4.64716990651901     -0.39006870076926
  H   -0.38216374898515      3.49351556566551     -1.71679138850222
  C   0.32815376140791      2.89746955259777      1.65911115361463
  H   -1.22183207951881      2.55093649271313      0.30766984271426
  H   -0.25121477755354      3.74449081120521      2.02955327739577
  H   1.37465890963576      3.17093210723547      1.74185913792514
  H   0.13574942567147      2.04923244215725      2.31806586988013
  C   1.31568800193389     -3.86647186696261      1.08628321172400
  H   0.94193468817729     -3.22834686065361      1.88872353099642
  H   1.57371761066817     -4.83264156742135      1.52245814759624
  H   0.51094069757286     -4.04380616410991      0.38080605101545
  C   3.15709424441254     -4.06653968455698     -0.70794740397928
  H   3.32976752301027     -3.35323081434896      1.25476121824443
  H   3.25249653487311     -5.11312274503341     -0.41371114284441
  H   4.15124402875289     -3.69412446654109     -0.95980865528731
  H   2.54051552612035     -4.02712981879348     -1.59986925362151
