38
Coordinates from ORCA-job 654optt
  C   -1.04776798057330      0.54555516248837      0.03312477690227
  C   -1.06878029134909     -0.83730096111396      0.23738973847661
  C   0.10915549101498      1.28588001340991     -0.09084639085825
  C   1.36348521305447      0.60330968886936      0.08649236588292
  C   1.34998269606659     -0.81953747397065      0.16394930507161
  C   0.11566285848363     -1.52054727717924      0.25177823915139
  C   2.65978734544518      1.22617819694005      0.18264474940959
  C   2.56291910118394     -1.54461842464439      0.15205941432089
  C   3.76083667807950     -0.90525539370116      0.09123718217994
  C   3.84323742197730      0.50219215567269      0.14420614340871
  C   2.78696841567029      2.61536176162928      0.51283568523557
  C   5.23660397278168      1.10764018909371      0.19983669034771
  H   2.52231858447380     -2.62622996814343      0.18326396720006
  N   2.96668241601754      3.69951284507452      0.84585960857103
  H   -1.99622591775858      1.05567575282262     -0.08099752556774
  H   -2.00695949354544     -1.36762364829521      0.32555847167158
  H   4.67806871423391     -1.47876560073788      0.05262488851760
  C   -0.12296373301097      2.73257185029381     -0.53049081611365
  C   0.11106161949948     -2.95045681852378      0.36015571826261
  N   0.11306736725848     -4.09514103812610      0.44709278897460
  C   0.76748618700238      3.21807844571167     -1.68024602551470
  H   1.76567810817130      3.51653630178136     -1.37830420803724
  H   0.29765771194576      4.09218399653353     -2.13375081555227
  H   0.85107900515510      2.44895640239039     -2.44992119796733
  C   -0.26350355235481      3.72390904863478      0.63101492806290
  H   -1.11948367763044      2.68732711507507     -0.97530015736291
  H   0.64270114811899      3.82734632200319      1.21820396830596
  H   -1.06904687052142      3.40522475645359      1.29455086545801
  H   -0.52136697068115      4.70783070371677      0.23534963893678
  C   5.59997753776379      1.59986167491701      1.60548607874931
  H   4.99735391012400      2.45796119365595      1.89821934640013
  H   6.64776616938112      1.90262171968798      1.62424535056360
  H   5.46051069225030      0.80912502842324      2.34360222465444
  C   5.49771765241779      2.17377879425114     -0.86770342646196
  H   5.90850561435897      0.27543972616945     -0.02308158166112
  H   4.96895326435280      3.10186502135156     -0.66132353337541
  H   5.20388256734874      1.81796253412843     -1.85602593473757
  H   6.56447102379305      2.40001020325618     -0.89267052150565
