38
Coordinates from ORCA-job 656optt
  C   -0.74733692223640      0.40595216185331     -0.76558770826756
  C   -0.91972039444817     -0.89800562692788     -0.24575308116532
  C   0.46794112426428      1.02649906473377     -0.79857332236986
  C   1.62254494631551      0.37759312465336     -0.30450901367455
  C   1.49214674510508     -0.92534502915524      0.22283231621522
  C   0.20287202755485     -1.54041385675682      0.23871439443666
  C   2.91180502623208      0.99269793444185     -0.32030520715722
  C   2.64675791680112     -1.57425573339483      0.71688370958993
  C   3.86201330558153     -0.95365722115404      0.68402291108588
  C   4.03437654959013      0.35033616635491      0.16426917785790
  C   2.98711453663471      2.31873560396073     -0.86587412758428
  C   5.42374436457218      0.95624936679593      0.17042872729763
  H   2.55844414893801     -2.57393036802328      1.12346748608275
  N   3.00111014115805      3.37770864376063     -1.30991987909289
  H   -1.61792435574179      0.92315584176998     -1.14910848886456
  C   -2.30910687445862     -1.50388025098878     -0.25185130450221
  H   4.73259362429934     -1.47083458646779      1.06759492031720
  H   0.55625624222911      2.02615564106195     -1.20520028961548
  C   0.12759220365966     -2.86652510606470      0.78410781047964
  N   0.11359805228994     -3.92554647574995      1.22803868894213
  C   -2.39767859394201     -2.74950540689511     -1.13844526627766
  H   -2.03948529717721     -2.53969044958297     -2.14679436344143
  H   -3.43583597443130     -3.07726606952414     -1.20565164913860
  H   -1.81428530420546     -3.57395897967137     -0.72956602855694
  C   -2.83068604715932     -1.78021987646721      1.16128643686494
  H   -2.95932588062553     -0.74527369559244     -0.69401458339973
  H   -2.26455207793157     -2.57328979225316      1.64888247819908
  H   -3.87284693023252     -2.09806573148199      1.11048174383853
  H   -2.77619891211476     -0.88519569630797      1.78182210201005
  C   5.51226654877229      2.20238745988268      1.05630180267707
  H   4.92959816286262      3.02690323328541      0.64653478499077
  H   6.55054979606451      2.52964135517269      1.12402887425693
  H   5.15328139423290      1.99337455626364      2.06453659690898
  C   5.94550286446282      1.23174704068670     -1.24280956913430
  H   6.07386733797723      0.19789173231824      0.61315924725345
  H   5.37894900121693      2.02407059345586     -1.73114650760049
  H   5.89167364118143      0.33618901891146     -1.86263156827163
  H   6.98745386270822      1.55029141309654     -1.19207225119005
