20
Coordinates from ORCA-job 658optt
  C   -0.93903679950433      0.52351292008624      0.01727956266699
  C   -0.98460317053808     -0.87758827964411     -0.00642983429906
  C   0.22760379673781      1.22325478648885      0.02570848499659
  C   1.45055532216738      0.51567557998982      0.01084983508226
  C   1.45272857364462     -0.90057544990782     -0.01278911962788
  C   0.19610602331941     -1.57322370761014     -0.02118468203952
  C   2.70808989659485      1.18571149466335      0.01919291942889
  C   2.68068651248345     -1.60136451245719     -0.02707188517511
  C   3.86859636968782     -0.92561876119365     -0.01841245812112
  C   3.88533087189977      0.48036383952432      0.00497507733107
  C   2.73336674639528      2.61940022151852      0.04343977412319
  H   4.82530708790592      1.01519194461447      0.01210266177151
  H   2.66422394942377     -2.68404688044745     -0.04504762578950
  N   2.73076974202358      3.76686948196698      0.06273506516374
  F   -2.10210497067137      1.17546384234249      0.03206641900870
  H   -1.94041821954710     -1.38258118412296     -0.01272789084469
  H   4.80347328997507     -1.46846488657941     -0.02948578704662
  H   0.21161861153724      2.30548519093310      0.04398254218373
  C   0.16866741929687     -3.00779716885273     -0.04595602286146
  N   0.16601894716798     -4.15491847131268     -0.06601703595172
