20
Coordinates from ORCA-job 659optt
  C   -0.96533383024240      0.55845612656450      0.01759000730113
  C   -0.96055453288046     -0.84379768236307     -0.00584149805719
  C   0.22403103841005      1.22627264713398      0.02576997374605
  C   1.45346300254882      0.52314288718136      0.01128477405312
  C   1.45232417936446     -0.89119760357733     -0.01235776213173
  C   0.19885863562194     -1.57217986890038     -0.02090665867467
  C   2.70936352106455      1.19400482164622      0.01963471327049
  C   2.67976271738033     -1.59243613640973     -0.02692829542962
  C   3.86691506633930     -0.91440924865891     -0.01848862568551
  C   3.88813592522855      0.49144590162784      0.00507913411806
  C   2.73465192343946      2.62844732370898      0.04407875820464
  H   4.82860315194110      1.02493369028342      0.01200999377583
  H   2.66380816271361     -2.67497491520464     -0.04503110984565
  N   2.73514825211928      3.77588360411490      0.06348442774728
  H   -1.91525568176960      1.07432378092143      0.02851731783583
  F   -2.12891432958132     -1.47402412836125     -0.01372770913330
  H   4.80109597776029     -1.45896062799843     -0.02997561015547
  H   0.23879854136403      2.30886130596998      0.04372586231882
  C   0.15045947326246     -3.00097466013323     -0.04537444441661
  N   0.15162880591553     -4.14808721754567     -0.06535324884147
