20
Coordinates from ORCA-job 663optt
  C   -1.02684341328773      0.50390370436385      0.01610521910866
  C   -1.01704945319319     -0.89769479754598     -0.00626849234156
  C   0.15841411866923      1.17623948658787      0.02405386085084
  C   1.41540172782751      0.52637746232226      0.01141426795996
  C   1.41738953253791     -0.89286240375506     -0.01207820677953
  C   0.17079628907108     -1.58429905014626     -0.02028357572828
  C   2.66535108125967      1.21197330495481      0.02036803270259
  C   2.64277055729361     -1.59474930954731     -0.02724390669827
  C   3.80634526826606     -0.89166627132879     -0.01905265508228
  C   3.84358637113625      0.50798175096139      0.00510555841055
  C   2.77167920438768      2.64473578139954      0.04633946442040
  H   4.79715570058267      1.01726957698779      0.01176593632744
  H   2.66009836437590     -2.67672953736654     -0.04559556446467
  N   2.94120600287585      3.77862029338458      0.06668434419828
  H   -1.95118637107969      1.06331318162134      0.02697358028779
  H   -1.95028367750825     -1.44364908168962     -0.01301103045848
  F   4.97087901341408     -1.53755100851328     -0.03418089318785
  F   0.13654072143003      2.50450564836013      0.04423630713898
  C   0.16752218803651     -3.01678230633338     -0.04428568084053
  N   0.18722677390481     -4.16418642471735     -0.06383656582404
