20
Coordinates from ORCA-job 664optt
  C   -1.00166505171952      0.48811256722415      0.01678138567727
  C   -0.98473242223864     -0.91190029258075     -0.00634533027913
  C   0.17871960530854      1.16596255636095      0.02435562369221
  C   1.43967470010719      0.52240294983299      0.01113188624601
  C   1.44102419294365     -0.89892922830933     -0.01234358360667
  C   0.20229734540502     -1.60452005339881     -0.02123787703529
  C   2.67840218988862      1.22799375286885      0.01998233437654
  C   2.70197949787200     -1.54249076059242     -0.02550405431306
  C   3.88236453604102     -0.86464170319544     -0.01790382796158
  C   3.86543157158541      0.53537212365442      0.00516915590458
  C   2.76647000073245      2.66066335444254      0.04516830429725
  H   4.79610881220470      1.08551579436557      0.01206408477642
  F   2.73103576034327     -2.87001476529580     -0.04611432422519
  N   2.92921938306459      3.79595396232881      0.06488049582384
  H   -1.92937841112288      1.04231314979916      0.02847919244172
  H   -1.91540930054511     -1.46204454894049     -0.01324588306589
  H   4.81007806275001     -1.41884328022953     -0.02953834589446
  F   0.14966313810855      2.49348549738034      0.04503145594174
  C   0.11422917909478     -3.03718678831736     -0.04659262384627
  N   -0.04852278982368     -4.17246428739784     -0.06701806895003
