20
Coordinates from ORCA-job 669optt
  C   -0.94408384527493      0.57153075964339      0.01778135456837
  C   -0.96301398322802     -0.83706962456109     -0.00595413005529
  C   0.24537211243040      1.23784117633655      0.02614495750678
  C   1.47304474019453      0.53403571657042      0.01151910604996
  C   1.46535840193190     -0.87956906881732     -0.01214589107251
  C   0.20850749393837     -1.55622066012923     -0.02063591363646
  C   2.73055955038309      1.20126056797843      0.01968685939048
  C   2.69145757783141     -1.58499913654063     -0.02685325732148
  C   3.88099198949378     -0.91132389907217     -0.01864909436765
  C   3.90688435713198      0.49442441571762      0.00489898433792
  C   2.76029798242808      2.63556405990893      0.04420734451466
  H   4.84925782820688      1.02470369292722      0.01164827245930
  H   2.67355410432118     -2.66736103342334     -0.04494078860289
  N   2.76532561451203      3.78297986895021      0.06368244927978
  H   -1.88407784664044      1.10469813860625      0.02906886608230
  H   4.81326971658404     -1.45909208036857     -0.03030775019054
  H   0.25994945535586      2.32055031049522      0.04434387166070
  C   0.19079159911583     -2.98751511368706     -0.04491652945916
  N   0.22181016952408     -4.13433841705159     -0.06465384372574
  Cl  -2.48275701824005     -1.63744967348322     -0.01635486741854
