20
Coordinates from ORCA-job 670optt
  C   -1.00595037431447      0.43177303787179      0.01498265252810
  C   -0.97366134422291     -0.97113873554912     -0.00805727574551
  C   0.15493793442823      1.17167935459817      0.02427949661916
  C   1.42943205980907      0.52298284828189      0.01101466782022
  C   1.45602140277669     -0.89990376281227     -0.01255237862690
  C   0.22696527677619     -1.62042945695012     -0.02136899491047
  C   2.69445804636095      1.19117735821010      0.01939950370175
  C   2.68321321105315     -1.59970077592746     -0.02751203741994
  C   3.87005282550132     -0.92866779283881     -0.01995439896561
  C   3.86964416256635      0.47164235590932      0.00376337593369
  C   2.89039301726618      2.61615931101601      0.04517926435100
  H   4.80488723740961      1.01464257042196      0.01080739344414
  H   2.66199285711291     -2.68181228058399     -0.04534552453805
  N   3.20445060889877      3.71949304358056      0.06547846051295
  Cl  -2.55120082226774      1.18047385934159      0.03110638831043
  H   4.80797417999285     -1.46609025275976     -0.03184114026714
  Cl  0.02951697737451      2.87796298392099      0.05244459700007
  C   0.24401687818265     -3.05442184498124     -0.04511028045849
  N   0.26879359089573     -4.20137872065006     -0.06407764811922
  H   -1.90343772560007     -1.52180310009954     -0.01508612117015
