20
Coordinates from ORCA-job 672optt
  C   -1.05223476114961      0.43862669981951      0.01501390320723
  C   -1.03456378100284     -0.95895619786147     -0.00809140082999
  C   0.11215805763758      1.16175715402166      0.02471274426604
  C   1.38862637252159      0.52324428671661      0.01148787919179
  C   1.39456844699947     -0.90004181506599     -0.01228507586614
  C   0.16603568237594     -1.61790967140453     -0.02133536626279
  C   2.65554206382575      1.19614996254813      0.01989940962902
  C   2.62145977332670     -1.60460101134505     -0.02728903097259
  C   3.81026671470550     -0.94694749871585     -0.01974460789432
  C   3.82408431613210      0.45824825372916      0.00409441987679
  C   2.81754559671974      2.62199962202234      0.04483217145376
  Cl  5.35703478405922      1.23122566125322      0.01337364559829
  H   2.60092463780490     -2.68670186966716     -0.04538491466731
  N   3.07220847458684      3.74013147933838      0.06424726732922
  H   -1.99407822165389      0.96817403373251      0.02587260362199
  H   4.75003666033064     -1.48001649687174     -0.03160539896415
  Cl  -0.05912174338861      2.87398585943793      0.05440725121179
  C   0.18463351524347     -3.05155850054611     -0.04509475332980
  N   0.20873886488031     -4.19876803814634     -0.06408090575069
  H   -1.96137545395479     -1.51539191299522     -0.01543984084814
