20
Coordinates from ORCA-job 675optt
  C   -0.96672572330808      0.52905589897133      0.01717419531308
  C   -0.98773580572880     -0.87762835784476     -0.00630215269890
  C   0.21087842074039      1.22080807283978      0.02562688593202
  C   1.43716763687624      0.51995723173176      0.01112452348687
  C   1.44908395991485     -0.89469373948811     -0.01236536834624
  C   0.19443493751182     -1.57077631311450     -0.02072030639019
  C   2.69181650140770      1.19604064029331      0.01947940167564
  C   2.67537300297535     -1.59554429610162     -0.02687011224389
  C   3.85297711620077     -0.90379251767617     -0.01841688874087
  C   3.87398719605894      0.50289224578720      0.00506423594017
  C   2.71605860720307      2.63022605997236      0.04423407005243
  H   4.81902179786640      1.02760684222857      0.01184938310636
  H   2.67724505297599     -2.67793746165149     -0.04484715149785
  N   2.71483157860412      3.77734931511608      0.06409341243408
  Cl  -2.47101111219169      1.37039899906547      0.03490847533495
  Cl  5.35726285172292     -1.74513507319471     -0.03615752664819
  H   0.20900657216207      2.30320115533645      0.04360080036934
  C   0.17019203074341     -3.00496166568014     -0.04547322537551
  N   0.17141612590182     -4.15208468504389     -0.06534753395785
  H   -1.93277074763732     -1.40234235154690     -0.01308511774545
