21
Coordinates from ORCA-job 678optt
  C   -0.95696975294197      0.52551170339552      0.01739978005738
  C   -0.96880697843091     -0.88366863124698     -0.00665638122131
  C   0.23049606724814      1.20910927223109      0.02595974254102
  C   1.45290027612351      0.50912700595406      0.01120955575279
  C   1.46696810813094     -0.90779131199789     -0.01254390697064
  C   0.21271818580711     -1.57871842935568     -0.02107010291517
  C   2.71043623644437      1.18318747145106      0.01929344878425
  C   2.69715532643845     -1.60398516392573     -0.02697939801047
  C   3.88241721268515     -0.92383692369214     -0.01860935368304
  C   3.89040302880461      0.48272017449842      0.00477998324871
  C   2.73432888687639      2.61679916629465      0.04347530844102
  H   4.82760867846527      1.02259661810559      0.01161538326967
  H   2.68456878740986     -2.68686391632873     -0.04500063607858
  N   2.73616014439241      3.76441943101021      0.06289008082288
  O   -2.10657043718640      1.23816345376050      0.03211869050629
  H   4.82008547744530     -1.46170662335192     -0.02994065057895
  H   0.21883930925804      2.29149451896056      0.04417428967322
  C   0.18082463974230     -3.01325364701620     -0.04585783362743
  N   0.16695926434807     -4.16051177084057     -0.06570424306040
  H   -1.90999359362650     -1.42028894606716     -0.01395146774896
  H   -2.87202886743415      0.65496654816135      0.02435771079771
