21
Coordinates from ORCA-job 679optt
  C   -0.94811916301475      0.54349987739993      0.01746224227410
  C   -0.96255969060180     -0.86993405293079     -0.00637883189142
  C   0.23432343926601      1.21566491261915      0.02563166541889
  C   1.47454609225729      0.52514074545209      0.01119161554510
  C   1.47918101902812     -0.88710912432030     -0.01251655395960
  C   0.22752501612426     -1.56932928240032     -0.02115527486126
  C   2.72373805376923      1.20330735346386      0.01965905920412
  C   2.70989376502460     -1.58004138226745     -0.02681952601740
  C   3.89489828516152     -0.89544112070055     -0.01817497971211
  C   3.90930291480012      0.50901867593932      0.00530248723420
  C   2.74054054028791      2.63817162490577      0.04407777456451
  H   4.84608096677217      1.04869818478567      0.01235868423181
  H   2.70312125747923     -2.66303487097487     -0.04490099405865
  N   2.73712530526985      3.78567875832301      0.06362537277456
  H   -1.89723130794436      1.06117792465210      0.02860316800050
  H   4.83156724267604     -1.43589995526747     -0.02946177962504
  H   0.24061631864098      2.29859876401486      0.04372304152908
  C   0.16082925440508     -2.99445545360102     -0.04549436702659
  N   0.02572922405835     -4.13592643079419     -0.06475618683197
  O   -2.16686396799926     -1.45967221567301     -0.01344513558785
  H   -2.08483456546061     -2.42367293262581     -0.03018148120492
