22
Coordinates from ORCA-job 680optt
  C   -0.98281760432996      0.47601895137375      0.01669948127918
  C   -0.96510019037514     -0.91833174706315     -0.00745740293460
  C   0.19944388494983      1.20488887671255      0.02654366120947
  C   1.44686492294584      0.51981334685909      0.01183561501997
  C   1.45801792583138     -0.90457501985406     -0.01227608710176
  C   0.22538762687886     -1.60397686797923     -0.02162350050154
  C   2.72413082992058      1.16861599917769      0.01905595723841
  C   2.68698314168404     -1.60649365573622     -0.02670230042747
  C   3.88163595558757     -0.94839776945014     -0.01871193290183
  C   3.89794235082253      0.45476845599168      0.00429204042839
  C   2.84586421355971      2.59638668944554      0.04211463548309
  H   4.83716336828008      0.99118638773748      0.01072266807230
  H   2.65878706186954     -2.68891939204820     -0.04465732278407
  N   2.92924749140978      3.74275858130373      0.06078873408420
  O   -2.13512398768083      1.18339003074450      0.03128398393380
  H   4.81276674967696     -1.49710126735138     -0.03011640892692
  O   0.03439942059523      2.53559426254029      0.04992806637559
  C   0.21377284649436     -3.03502992107147     -0.04663735579959
  N   0.21332604271930     -4.18313947753956     -0.06676224722334
  H   -1.90123979729132     -1.46389158451912     -0.01518380489193
  H   0.85916968557581      3.03669806181730      0.05612034829239
  H   -2.89109193912415      0.58811705890892      0.02309317207623
