22
Coordinates from ORCA-job 683optt
  C   -1.01964584829414      0.49525127432514      0.01715480382233
  C   -1.00780307932260     -0.89634076028616     -0.00678979141368
  C   0.15409733396805      1.21765598717938      0.02648736009659
  C   1.41389770889577      0.53971813714187      0.01169620918036
  C   1.41841848775976     -0.88281672306862     -0.01239369979307
  C   0.18181186818464     -1.58577118270586     -0.02155100490536
  C   2.69130454709360      1.18115765984392      0.01915511126781
  C   2.64124261461135     -1.59112811332886     -0.02673135844799
  C   3.83853987623340     -0.93256000087957     -0.01827207821843
  C   3.86477488512551      0.47395989690435      0.00485079338084
  C   2.81626135080533      2.61054438257728      0.04250688706708
  H   4.81843991054536      0.98344853465167      0.01115126044452
  H   2.61511500514859     -2.67502345973436     -0.04479291999276
  N   2.89551300865367      3.75665793146589      0.06127519535065
  H   -1.95028793024109      1.04431901629502      0.02921683825745
  O   5.04063151897606     -1.54844893777621     -0.03070026536857
  O   0.00326800999021      2.55133187301273      0.04999933534767
  C   0.18624161619504     -3.01561675823742     -0.04646376250793
  N   0.22115257109133     -4.16367305293609     -0.06656695029231
  H   -1.94091934078477     -1.44332267205044     -0.01401092765721
  H   0.82864169594007      3.05130550830252      0.05584511821121
  H   4.92957418942487     -2.50536854069622     -0.04662615382922
