28
Coordinates from ORCA-job 690optt
  C   -0.99516413460172      0.56401656721384      0.28203296878312
  C   -0.94156212077931     -0.83567051553304      0.37631476911076
  C   0.15388187769541      1.29079933028758      0.04871380162071
  C   1.40546150538638      0.63419326144050     -0.10213185900324
  C   1.45580388325619     -0.78215970739823     -0.03418464038256
  C   0.24935757364074     -1.49542547952166      0.21771351536462
  C   2.62999889098956      1.33782294263744     -0.31016217474376
  C   2.68754587269344     -1.45367743603628     -0.20807390260214
  C   3.83838291473529     -0.75334243012369     -0.43030055591883
  C   3.81046942391129      0.65023124456032     -0.47173658103565
  C   2.72096431310536      2.77288626460131     -0.31699290273138
  H   4.72402856359443      1.20892837353241     -0.62365797776893
  H   2.70138494126343     -2.53539622632225     -0.16029331113750
  N   2.90605951254853      3.90558231959191     -0.29913335384019
  O   -2.19695271306895      1.17654101504633      0.46133266683499
  H   4.77715802349121     -1.27266765949811     -0.56427857226506
  O   0.09590658091666      2.63679982978155     -0.08570418444991
  C   0.28082906290195     -2.92638348354793      0.30131559578664
  N   0.32131704249714     -4.07183937740117      0.36412697954552
  H   -1.85868597525102     -1.37623003172777      0.56799921811977
  C   -0.05312936125631      3.36684870404464      1.13452834532205
  H   0.01056391683951      4.41735932458468      0.86573704420096
  H   0.76107168759745      3.12188151064147      1.81952758913334
  H   -1.01529929153961      3.14205147684017      1.59644649092406
  C   -2.74588992751838      1.78026542485616     -0.71074402623469
  H   -2.08767107213920      2.56041068666832     -1.09233410483128
  H   -3.69952538366418      2.20785283269939     -0.41331535543469
  H   -2.90848560724531      1.02226123808204     -1.48018548236675
