28
Coordinates from ORCA-job 691optt
  C   -0.79375784628361      0.54719530991977      0.13484214214650
  C   -0.86657829386978     -0.86514838691779      0.08205979295050
  C   0.40072904801400      1.20253919308342      0.07514722044760
  C   1.63268419033501      0.47488331062899     -0.04491744164392
  C   1.56416089524590     -0.93524275846461     -0.09297778692540
  C   0.29250409306628     -1.61109356242484     -0.02483614225954
  C   2.90488024287919      1.10361231947446     -0.11533949712155
  C   2.76189712086371     -1.67453762633161     -0.20728447720610
  C   3.97639429794912     -1.04678459616123     -0.27380527459447
  C   4.05353203740874      0.34835125069911     -0.22820014343026
  C   3.10321853861921      2.52831899955934     -0.07639273189096
  H   5.00973026067454      0.85004751821464     -0.28061327879789
  H   2.71016184523139     -2.75445312728682     -0.24275221220271
  N   3.38557945455346      3.64027603678222     -0.05495968457105
  H   -1.73068227776506      1.07513948728729      0.22099105833945
  H   4.88281381824826     -1.63015740288127     -0.36199797202869
  O   0.52057016315419      2.53119106582076      0.11955906563764
  C   0.33086773609396     -3.03821664748547     -0.05558387782572
  N   0.44889060627827     -4.18120573903770     -0.08077394877544
  O   -2.12881568677181     -1.30658510330014      0.15127920710865
  C   -0.64336570682998      3.32481036983389      0.24298411208063
  H   -1.30750272764911      3.17195592967452     -0.61051470755098
  H   -0.29734703878252      4.35365108386613      0.26258669465379
  H   -1.17254810559760      3.09235027498198      1.16972210253983
  C   -2.45965019979881     -2.68294799492539      0.02777587851765
  H   -3.54509700077672     -2.71678147110739      0.05007644430773
  H   -2.05549696462256     -3.26165019777199      0.85692098577709
  H   -2.09727249986770     -3.08829753573027     -0.91645552768234
