28
Coordinates from ORCA-job 692optt
  C   -0.88633247857224      0.88847770311836      0.30299290643042
  C   -1.12048707453686     -0.48897075093442      0.34365015070436
  C   0.39097903003139      1.35997398414536      0.12272382339245
  C   1.49326205945242      0.45853601740035     -0.02165720367034
  C   1.24044069347309     -0.93498370311974      0.02155163957760
  C   -0.09870670528134     -1.39746555801466      0.20717465627145
  C   2.83251378948763      0.92102200777999     -0.20653903467893
  C   2.34260439675050     -1.83643462064321     -0.12367891997035
  C   3.61994559350091     -1.36493952051077     -0.30370515665856
  C   3.85423014427475      0.01252075801884     -0.34343207487235
  C   3.22343487966791      2.30193905105838     -0.26100008314263
  H   4.86265185417865      0.37737858686394     -0.48359166070637
  O   2.03082843911352     -3.13480774838988     -0.06994496374040
  N   3.66073920406420      3.36198534147311     -0.31721323246078
  H   -1.71613562878696      1.56951747506430      0.41288227737944
  H   4.44968313838563     -2.04596696862422     -0.41417177332100
  O   0.70258169831464      2.65834301406606      0.06783737748967
  C   -0.48938008265647     -2.77836814791580      0.26358300007466
  N   -0.92612643251427     -3.83838396847775      0.32451263254365
  H   -2.12882355312136     -0.85385487257885      0.48435693554895
  C   -0.32164121230151      3.62261815519648      0.20132725633071
  H   -1.05948735995835      3.51834182874601     -0.59740280431328
  H   0.17127773739466      4.58695715451194      0.12384642823679
  H   -0.81336743760232      3.53481466203612      1.17278704672542
  C   3.05504556662144     -4.09909912529521     -0.20338842027055
  H   3.79265355076998     -3.99506803169788      0.59559153938415
  H   3.54706993822465     -4.01106931255827     -1.17467761103622
  H   2.56205625162561     -5.06343341071859     -0.12628473124796
