28
Coordinates from ORCA-job 693optt
  C   -0.36774847144163      0.45998994208981      0.23148119008133
  C   -0.41767450554303     -0.93803592885420      0.27223609302925
  C   0.84533639566397      1.10101908419027      0.10943405913562
  C   2.06087185384384      0.35643498491823      0.02257170095564
  C   2.00177804417595     -1.05618660631598      0.06529809359788
  C   0.72789453344348     -1.68782312672537      0.19283674302619
  C   3.34860912193865      0.96110873835090     -0.10813783630605
  C   3.18173000596797     -1.83001826227625     -0.01783629332116
  C   4.40093173846267     -1.21675449178664     -0.14195876507535
  C   4.47904271796051      0.19153100313925     -0.18682401075964
  C   3.56756822568678      2.38287489657352     -0.16968881637182
  H   5.45188139777238      0.65294791382178     -0.28600462162184
  H   3.09396939932626     -2.90638920305750      0.01898768380167
  N   3.85923827994036      3.49062776994649     -0.23137405543575
  H   -1.28496505992492      1.02412571070316      0.29672551639933
  O   5.58262034240422     -1.85361381534747     -0.22882666401859
  O   0.98164907554685      2.42990248447050      0.06311536060064
  C   0.65300929621633     -3.11591766116295      0.23762481230284
  N   0.62080187259029     -4.26375772239474      0.27071145442453
  H   -1.37316719335643     -1.43588201633636      0.36834336135922
  C   -0.16964647245266      3.24684297541298      0.13784947395498
  H   -0.84432589290173      3.04320984114444     -0.69657691780295
  H   0.19100212434880      4.26925868451429      0.07856327391131
  H   -0.69363771831517      3.09331105087545      1.08379204578059
  C   5.56996701920506     -3.26859876182410     -0.18966620657666
  H   5.15404664214350     -3.62812173358269      0.75434911555700
  H   6.60603706221185     -3.58137840299526     -0.27593479475957
  H   4.99164016508573     -3.67589734749153     -1.02214099586862
