28
Coordinates from ORCA-job 694optt
  C   -0.45950694889217      0.79592684614065      0.15171669060397
  C   -0.41968867245901     -0.60677944233634      0.17307971297554
  C   0.70308256387497      1.52737046655839      0.10962986724215
  C   1.98108102573480      0.87607110486825      0.08640397718127
  C   2.00562256498093     -0.53801161791441      0.10922098914665
  C   0.77829703830372     -1.26667553446757      0.15293601520300
  C   3.21414587819070      1.58523315960140      0.04171175087420
  C   3.24821719691418     -1.20492047436696      0.08851579992012
  C   4.42610419450931     -0.51782840861383      0.04669876338845
  C   4.41907298078159      0.89103593980089      0.02263315873054
  C   3.32543301634430      3.01519995589162      0.01281243921183
  O   5.53799249080997      1.62865521428987     -0.01881608083637
  H   3.25796895603003     -2.28759333102749      0.10655019365057
  N   3.51095516595887      4.14731616308274     -0.01356628043401
  H   -1.41677307894877      1.29382362011578      0.16897392777584
  H   5.36076173546641     -1.05776682352079      0.03183841042055
  O   0.74059644607999      2.86313657429446      0.08764333090500
  C   0.80838433584037     -2.69778582893163      0.17612121670006
  N   0.85104490928603     -3.84535171927015      0.19563180699909
  H   -1.34264323084261     -1.16915491389376      0.20646172295071
  C   -0.47003991315070      3.59067953791865      0.10702046842129
  H   -1.08028198771144      3.35284886662077     -0.76735671624544
  H   -0.18395216703190      4.63783312083308      0.08233356144995
  H   -1.03409284083529      3.38203114970416      1.01906199668499
  C   6.79251646242919      0.97480130256759     -0.03930382102121
  H   7.53551149309420      1.76565997570365     -0.07290642659932
  H   6.89209488826140      0.34309190230493     -0.92468037069943
  H   6.93808549698083      0.37548319404604      0.86208389539998
