28
Coordinates from ORCA-job 696optt
  C   -0.96533426042028      0.58556388133550      0.01916156570567
  C   -1.01370146918904     -0.83544652147157     -0.00418307861458
  C   0.20917638442893      1.26017457770085      0.02670990789841
  C   1.44646958305110      0.56183532780873      0.01209425797997
  C   1.42923267244412     -0.84715868385238     -0.01093663223658
  C   0.17050024814113     -1.54800161917937     -0.01914989163905
  C   2.68899917848459      1.24413065225947      0.02029704341289
  C   2.66247609325590     -1.53134295799302     -0.02531990712184
  C   3.85685818773208     -0.86109275060203     -0.01762343866776
  C   3.88544970147333      0.54653116155355      0.00568929662657
  C   2.71147352695860      2.67393397875693      0.04429609284397
  O   5.01437679829174      1.27347561816158      0.01517843961398
  H   2.66662550025998     -2.61350293472247     -0.04316153214590
  N   2.68639682507710      3.82155704618775      0.06366329808034
  H   -1.91406914736533      1.10448143437319      0.03039044638995
  H   4.77883029349245     -1.42294166874420     -0.02960581000932
  H   0.21597242280543      2.34276862116651      0.04435984456626
  C   0.25447653294623     -2.97648457953274     -0.04239564952692
  N   0.42017395042066     -4.11318940006568     -0.06106933250260
  O   -2.26831535616541     -1.30700323519075     -0.00834003062604
  C   -2.54992431574156     -2.69782964343366     -0.03579617323383
  C   6.25732329725507      0.59752335376235      0.00081301872724
  H   -3.63367404372943     -2.77007052010877     -0.03639163469338
  H   -2.14815378876273     -3.19736494884893      0.84539251590113
  H   -2.14954637566662     -3.16168038662172     -0.93695602526877
  H   7.01641208462180      1.37365287257063      0.01346539789172
  H   6.36603491805479     -0.00453050305989     -0.90401723421233
  H   6.36933055784532     -0.03665817220986      0.88301524486079
