28
Coordinates from ORCA-job 699optt
  C   -0.97101172104200      0.31669044132650     -0.04377940117102
  C   -0.93826087062172     -1.11003236292659     -0.12487694677050
  C   0.16599947918664      1.05679829795703      0.01169199809156
  C   1.44526163873388      0.44771222050845     -0.00862844544953
  C   1.52389028782013     -0.95765819144129     -0.12014824650056
  C   0.31737552708783     -1.71871136861657     -0.20259229764950
  C   2.64830912422364      1.19831734599814      0.07003282341394
  C   2.79982547028930     -1.56764915230929     -0.17018537762062
  C   3.94142191717524     -0.81592717013603     -0.09611137488388
  C   3.87548212191730      0.58125541479434      0.02898324180248
  C   2.57354134732517      2.62630534878389      0.19393622439789
  H   4.77790670992649      1.17320149685993      0.09110273263866
  H   2.86356595007057     -2.64392205106390     -0.26793068378065
  N   2.49527212645676      3.76730394134604      0.29261927187039
  H   -1.92590533509660      0.81751182626594      0.01302866183380
  H   4.90793125360966     -1.30006026375153     -0.13303844033358
  H   0.10130414007890      2.13507580872106      0.09377468357455
  C   0.44244157254062     -3.11046702852623     -0.49519134236798
  N   0.57831149669406     -4.22007133159870     -0.76386124337378
  N   -2.10832072346976     -1.81422436619036     -0.12741169615550
  C   -2.22210843305932     -3.13621992655178      0.47150464369185
  C   -3.36712342187390     -1.15407041858419     -0.40974274224229
  H   -3.78978777965809     -0.65945439811332      0.47282619640102
  H   -4.07763366140451     -1.90429200297524     -0.75330297487630
  H   -3.24825418063851     -0.42194102297775     -1.20616625852487
  H   -1.39908230531836     -3.31241359382230      1.16061627373341
  H   -2.22623499446375     -3.93510256467794     -0.27164732082741
  H   -3.15258673648970     -3.17490492829829      1.04016804107843
