34
Coordinates from ORCA-job 706optt
  C   -1.04278612868474      0.53425621760005      0.11024516978861
  C   -1.06818881880031     -0.87340757145276      0.01010313887456
  C   0.12590530263368      1.23915268940115      0.07251161192816
  C   1.36421406208110      0.57275897809971     -0.07266965615386
  C   1.37618750289667     -0.83497718990377     -0.18735553334185
  C   0.13328085755663     -1.53268545426818     -0.13904020850841
  C   2.60717888392554      1.26610955828380     -0.11107056508770
  C   2.61359568489391     -1.49582540701937     -0.35656242080683
  C   3.78614235577247     -0.79462383327383     -0.40130115052333
  C   3.81172288599293      0.60958644899119     -0.26316638046103
  C   2.59236316045761      2.69557700583981      0.01107035940420
  C   5.12139491161376      1.39544419654278     -0.25614062128281
  H   2.62399074103390     -2.57345221037070     -0.46516177182041
  N   2.58973383916790      3.83921725948682      0.11784131551028
  H   -1.98306304887271      1.06042361100833      0.21715646856306
  H   4.71418127387930     -1.31960803154760     -0.57450443591948
  H   0.11445933477832      2.31922974954687      0.15292520532178
  C   0.16355897101704     -2.96167405597651     -0.26694736899750
  N   0.18836402740287     -4.10481583446923     -0.37904271402179
  C   -2.41629416437115     -1.58996219081476      0.06532916636015
  N   -2.55518380255148     -2.59749129641377      1.11038834642836
  N   -2.72610133589109     -2.10307068532897     -1.25272678221674
  H   -3.15776467314502     -0.82066241722514      0.29137591794754
  N   5.41685857496370      2.01220394713634      1.03734538310411
  N   6.20946571876627      0.56299484532979     -0.72624278935988
  H   5.01262607301694      2.21580773074122     -0.96921317901134
  H   -3.62970460536121     -2.56265142776098     -1.22362598434323
  H   -2.04727624043174     -2.79961872381733     -1.54255116016735
  H   -1.92758763841615     -3.38074302724744      0.96738525560150
  H   -2.38061090725107     -2.21175117382296      2.03138927415035
  H   5.28420976277875      1.35093189408424      1.79540305075796
  H   4.82571335836657      2.81560005873558      1.21782306251547
  H   6.45425647413634     -0.12119306347452     -0.01615662217452
  H   7.02926760664429      1.14888940336014     -0.83539338205800
