24
Coordinates from ORCA-job 707optt
  C   -0.81849472536240      0.40124556590024     -0.33021033303049
  C   -0.86677491498314     -0.97130731337752     -0.04743611214841
  C   0.37069783423713      1.07733620873140     -0.45671770192300
  C   1.61248382913269      0.37218334659265     -0.32168620415283
  C   1.56522496456808     -1.01788355009188     -0.00925638388756
  C   0.30048155118660     -1.66358851485949      0.12292581592044
  C   2.91384804026155      0.94426878450386     -0.48729258919618
  C   2.75421581185467     -1.76493564080025      0.15517123504676
  C   3.97555628954465     -1.17772942530877      0.00475360257257
  C   4.05066854704902      0.18165394484766     -0.32433377931099
  C   3.18984417144265      2.31545820610044     -0.82892783900137
  H   5.01367166235107      0.65486665588401     -0.46007739456169
  H   2.67689733479756     -2.81699095666254      0.39850446971277
  N   3.58278490391401      3.36797154697141     -1.06515889296720
  H   -1.74086922687012      0.95388492282098     -0.44379744104791
  H   4.88317534440224     -1.75184401977082      0.12934243545241
  S   0.25351234546275      2.80066197155611     -0.85268243727911
  C   0.24856470403218     -3.06335219496390      0.43396183782883
  N   0.21300782260092     -4.18279100818354      0.68439497994119
  H   -1.81737292296390     -1.47753729077913      0.04914796197245
  C   0.72428912167282      3.53431307814513      0.73445150672070
  H   0.82603598984951      4.60240569288190      0.55103445001109
  H   1.68186027359288      3.15192796951689      1.07854135404363
  H   -0.04896875177349      3.35692202034516      1.47825745928389
