28
Coordinates from ORCA-job 712optt
  C   -0.85763208253349      0.39666595565263     -0.43241653550143
  C   -0.87009215084454     -0.90007336053924      0.08442961768055
  C   0.30890160305508      1.10936712380746     -0.52773117120267
  C   1.54416354780911      0.51828283909849     -0.10551680930179
  C   1.56123182396572     -0.86020625580914      0.29867082270423
  C   0.30271804876146     -1.52785739541285      0.43048165651728
  C   2.77693295552226      1.24323644792166     -0.05631614104905
  C   2.82164558057823     -1.49576821546089      0.55507089319864
  C   3.97531826624827     -0.75537596742026      0.54206948828826
  C   3.95109980121141      0.61600123157536      0.27983441938199
  C   2.91570611341779      2.66357833443598     -0.24047597200859
  H   4.86379098296797      1.19443733501838      0.32365610079743
  S   3.01648611337395     -3.21393947116508      0.93687545921512
  N   3.19218196054477      3.77755867836737     -0.27555074486367
  H   -1.77978012354663      0.85122286312626     -0.76802539347004
  H   4.91718790422357     -1.24832343795471      0.73892324442935
  S   0.19407493377605      2.69721887939376     -1.31753516419507
  C   0.09875184452685     -2.85163490286205      0.95976953057499
  N   -0.25720763452924     -3.87219287450803      1.34676149197294
  H   -1.80492383215188     -1.43091544870077      0.20160349119216
  C   -0.12892749072779      3.76439664081731      0.10808225489665
  H   -0.27258770066259      4.76388656664186     -0.29873367581848
  H   0.72150934468357      3.77985800093706      0.78481139243937
  H   -1.03369664595839      3.44682784293209      0.62176003270229
  C   2.56479702084346     -3.96491561137809     -0.64671645723042
  H   2.58699336785971     -5.04028296504410     -0.47944098900599
  H   3.28880985873069     -3.69612475629363     -1.41231509446798
  H   1.56053658885453     -3.68429807717683     -0.95403574787607
