28
Coordinates from ORCA-job 713optt
  C   -0.81008514217536      0.22215911985336     -0.40078416577305
  C   -0.65838081572011     -1.15543708252346     -0.20099121684094
  C   0.27298429167295      1.06752777504700     -0.47106477794801
  C   1.59828523539720      0.54085271632584     -0.36037792649495
  C   1.75663877581423     -0.85599919588415     -0.13396829510078
  C   0.59718641830303     -1.68280955895811     -0.05806345762774
  C   2.81116230346915      1.29732413331954     -0.47055667628357
  C   3.03645814359388     -1.44070388223316      0.00355288744639
  C   4.17272448041188     -0.68379526120591     -0.08938482175042
  C   4.03955277537763      0.70001317952469     -0.33644784510128
  C   2.89348570526454      2.71250501686113     -0.72703055358562
  H   4.92813402848043      1.31198492021912     -0.42892432966943
  H   3.08887542120253     -2.50581944448663      0.17944640194420
  N   3.13015946726754      3.82281279410973     -0.89621801643974
  H   -1.80167543377055      0.64240012880329     -0.49454691082599
  S   5.80809616605596     -1.28489989552727      0.06196657426614
  S   -0.08807242896274      2.77795158355804     -0.76638799905028
  C   0.75050812732473     -3.09104193190646      0.16647089204690
  N   0.89304421860329     -4.21586688267861      0.34652943124707
  H   -1.52532385971106     -1.79970359036335     -0.14732018203217
  C   0.25157100118468      3.47162456931533      0.87136413849336
  H   0.15726426492898      4.55055702358632      0.76256803857001
  H   1.26377832341325      3.24516178561302      1.19637348097709
  H   -0.47459698785299      3.10764236608399      1.59452216785708
  C   5.54538311738237     -3.03563460884738      0.36460407627676
  H   4.98208157837072     -3.19442742037298      1.28259465067780
  H   6.53760507829551     -3.46724555894617      0.47581991807429
  H   5.04260574637827     -3.50886279828670     -0.47709548335311
