28
Coordinates from ORCA-job 716optt
  C   -0.92480008222728      0.54526628080313      0.23463722435317
  C   -0.96597366088098     -0.86819111803784      0.32712382933292
  C   0.24934124413329      1.21426099722156      0.06177762887878
  C   1.47578892793690      0.51505977773340     -0.04626258096474
  C   1.46679028085599     -0.89185302142224      0.04921550903015
  C   0.22631574812088     -1.56541511176682      0.26460777410022
  C   2.71626270467779      1.18862166249679     -0.26164805201011
  C   2.69323675174560     -1.59105286311900     -0.05881579087182
  C   3.86738103786328     -0.92205691282500     -0.23166231511019
  C   3.90855505743783      0.49139734754289     -0.32414691593262
  C   2.66923669079121      2.60379666006768     -0.47281405767341
  S   5.50293814223445      1.18726636050385     -0.56540327730597
  H   2.69410211804648     -2.67116041245197      0.01654392072217
  N   2.58684286376331      3.73340672127905     -0.66236082629178
  H   -1.85826596974055      1.09012295342123      0.28663805428991
  H   4.80084758173943     -1.46691319210107     -0.28364792436294
  H   0.24847701612886      2.29436904152872     -0.01357779770962
  C   0.27334216507898     -2.98058954965716      0.47578111618383
  N   0.35575343568516     -4.11020144923992      0.66531027531891
  S   -2.56035080375694     -1.56405615335404      0.56841794586470
  C   -2.56238443348958     -3.08144574042574     -0.41591209570753
  C   5.50481862796955      2.70483326736649      0.41865464063016
  H   -3.60672494543624     -3.24835545398418     -0.67235099469604
  H   -2.17454922223068     -3.93128806467483      0.13544598478185
  H   -1.99066099850880     -2.93082423641117     -1.32937447723617
  H   6.54904491481770      2.87144564257631      0.67574906125205
  H   4.93244250486620      2.55456373746838      1.33176798880149
  H   5.11763230237807      3.55470282946150     -0.13311384766740
