28
Coordinates from ORCA-job 725optt
  C   -1.51361455476957     -0.82879954631939     -0.50841087856276
  C   -1.03009958897845     -1.49006546809260     -1.66616260570420
  C   -0.72806090944240     -0.04723489831175      0.28926566633031
  C   0.26891358735329     -1.35558999515881     -2.01856512422510
  C   1.14911247273802     -0.55510148960256     -1.23272128208477
  C   0.66428882670241      0.11643839738910     -0.05840074218624
  H   -2.55694959551722     -0.94873182575381     -0.24363025731758
  H   -1.70532297491088     -2.09545765610200     -2.25614813300718
  C   -1.35852549138510      0.60342773972203      1.48968980894606
  H   0.66893800144687     -1.84709965356662     -2.89656062128401
  C   1.59440740114532      0.88935049715562      0.66792052234488
  C   2.48022830301103     -0.43204207630665     -1.61435755720524
  C   3.39152263716455      0.32992210262556     -0.89526934050107
  C   2.94629789541650      1.01012901434290      0.27528153889228
  C   1.24989317517100      1.61247656340366      1.85837038188589
  H   2.81549269251372     -0.95126996872860     -2.50568864017171
  C   3.89448908882682      1.78873142419188      1.00317131944857
  C   4.75403954584206      0.44581155733259     -1.29941572660330
  C   5.62744175318915      1.19620644335257     -0.58154290900000
  C   5.18584245499053      1.87536900443509      0.58654271333957
  H   3.57417545096098      2.31166606617097      1.89415849604709
  H   5.89095348935621      2.47069460860163      1.15173579056350
  H   5.07146841557197     -0.07918557053790     -2.19209220310609
  H   6.66049681550840      1.28194860730102     -0.89129045133578
  N   1.07706651036113      2.22466470710244      2.81493757885399
  H   -2.41089651103014      0.33002301566996      1.53576456213256
  H   -1.29111468102567      1.69021826844817      1.44724708115995
  H   -0.88493421021054      0.29071013123553      2.41986101235042
