29
Coordinates from ORCA-job 742optt
  C   -1.55753921389603     -0.75263656070673     -0.54194462986846
  C   -1.04427888466647     -1.44481135249163     -1.68361180534490
  C   -0.71525681138300      0.03022234331668      0.19660279059243
  C   0.26367573332331     -1.35929819408939     -2.02745967844381
  C   1.16839024590501     -0.56476341645300     -1.26308286876095
  C   0.66295418398350      0.14347219350887     -0.12907436135171
  C   -2.98342165777038     -0.90687767679439     -0.21412459652502
  H   -1.72383691000488     -2.05056280674851     -2.27068992689171
  H   -1.09510894522413      0.59558123696608      1.03872378886954
  H   0.64570353596651     -1.89065290103425     -2.89052627099385
  C   1.55310797834670      0.93344428456144      0.61840375824496
  C   2.51429293144690     -0.45827337586135     -1.59582087561255
  C   3.39649277469059      0.32346716490193     -0.85408491450785
  C   2.91246628533888      1.04021246278117      0.28342082968053
  C   1.06012055095426      1.64641096109067      1.75846417325048
  H   2.88810068451793     -0.99974597057645     -2.45819543091353
  C   3.82765065535148      1.83526943572703      1.03258949149544
  C   4.77596253423906      0.42936872568214     -1.19975312122512
  C   5.61972911428271      1.19674328812811     -0.46334988010131
  C   5.13520597902380      1.90850673196914      0.66909291672974
  H   3.46262140151031      2.37884737883724      1.89487396284345
  H   5.82040504175625      2.51564721371488      1.24600670967453
  H   5.13307323832259     -0.11753788890230     -2.06385906779560
  H   6.66498535982173      1.27200581718427     -0.73210948311727
  N   0.66322003105305      2.21653275479907      2.67352472696136
  C   -3.52468702563438     -0.72485657894200      0.98461731859026
  H   -3.61946086220398     -1.21997007768174     -1.03669724116911
  H   -2.92977347253928     -0.45322730546508      1.84815199712508
  H   -4.58673447651207     -0.85547788742187      1.14085168856497
