29
Coordinates from ORCA-job 743optt
  C   -1.65583991869557     -0.63828438886300     -0.31019714310029
  C   -1.28427319214597     -1.31089823514256     -1.51606838748975
  C   -0.75670798160164      0.06423129574399      0.42394415553205
  C   0.00660820418824     -1.21346866564322     -1.94753535736075
  C   0.98464630486752     -0.48850288758346     -1.21095381167782
  C   0.60043441574577      0.16245285506332      0.00165549232652
  H   -2.68530165985027     -0.70460995402850      0.02106345317511
  C   -2.31255508608057     -2.06977620991415     -2.24533622239261
  H   -1.05837850162667      0.56080398391301      1.33752865490848
  H   0.30822155762138     -1.67511969037784     -2.88035742444108
  C   1.56958907635712      0.87787652971876      0.72036252395091
  C   2.30404399585250     -0.39201282641281     -1.64785251678319
  C   3.26647355989398      0.31650116932700     -0.93458890069329
  C   2.90021765232893      0.97196411355063      0.28136183144515
  C   1.19023696142057      1.53138380959110      1.93752654931354
  H   2.59028234431305     -0.88513330890522     -2.57055287225130
  C   3.89636899044432      1.69446043575646      0.99915898340393
  C   4.61671291239399      0.40906178649638     -1.38627561480104
  C   5.53982366963074      1.10728078845045     -0.67703953568233
  C   5.17146749892659      1.75837842549752      0.53306210318969
  H   3.61916089160094      2.19084412177242      1.92060091025068
  H   5.91954068708124      2.31052795367511      1.08662012284683
  H   4.88605350991170     -0.09032596330648     -2.30893112305189
  H   6.56145726085667      1.17337687199163     -1.02693023498557
  N   0.88545684315839      2.05510616741965      2.91337570740652
  C   -2.08505505291796     -3.09586723208907     -3.05640099966794
  H   -3.33721067699526     -1.75693423388540     -2.06780576637702
  H   -1.08594167920574     -3.47670197522943     -3.23063575546109
  H   -2.89821258747403     -3.59865473658631     -3.56167882153245
