33
Coordinates from ORCA-job 746optt
  C   -1.64033657536420     -0.68640159965673     -0.25766766949179
  C   -1.14672031240526     -1.45380843695361     -1.35877138669402
  C   -0.78673902784553      0.11201909448638      0.47176672865103
  C   0.14790146171477     -1.39348163706368     -1.73338794978280
  C   1.06025821102726     -0.54816587909681     -1.03934581832903
  C   0.59692364582648      0.23204791910891      0.07139894927052
  C   -3.08897657460000     -0.82749082370937     -0.00400833870696
  H   -1.84223282287947     -2.08908418062264     -1.89306044642082
  C   -1.25925005090849      0.79070078948483      1.70696631481519
  H   0.51827220545786     -1.98103871958358     -2.56422311974768
  C   1.54359584371909      1.06427918910161      0.70695090066665
  C   2.38941266544290     -0.49583018214516     -1.43775738444476
  C   3.32334340019166      0.30653744218045     -0.79462929011663
  C   2.89594327598999      1.11338359672234      0.29976944691578
  C   1.20738266021582      1.96486516115927      1.77325478985750
  H   2.70510374288155     -1.10307567975649     -2.27924686967510
  C   3.86308775229479      1.94471250383633      0.93944648322335
  C   4.68694921280164      0.34763500225695     -1.20809319644281
  C   5.57981193850714      1.14684667273260     -0.57100962520355
  C   5.15584885509929      1.95552654899073      0.51823671199544
  H   3.55617865521426      2.56719450600182      1.76893458478216
  H   5.87526875349401      2.59020529576303      1.01890293679398
  H   4.99023884328678     -0.27404170883320     -2.04165236857395
  H   6.61405179994736      1.17461071838116     -0.88732429560896
  N   1.04799875020467      2.75047303959001      2.59628878039551
  C   -1.49131051718624      0.13729287354218      2.83358343015301
  H   -1.39148527724785      1.86676704129924      1.67571611917571
  H   -1.35741142816283     -0.93618438949050      2.89833721915197
  H   -1.82004590353141      0.65649040276892      3.72413930476410
  C   -3.93122511021981      0.13622944301102      0.34250329599210
  H   -3.48846157087114     -1.81741982138489     -0.20539806729809
  H   -3.60078308295093      1.15054042001151      0.52325035157164
  H   -4.98874341914421     -0.06535460213262      0.45023947836134
