33
Coordinates from ORCA-job 753optt
  C   -1.64198687768695     -0.53246253918074     -0.47347505719632
  C   -1.15887103200836     -1.34929608683278     -1.52366364967617
  C   -0.82570481391574      0.26067243689725      0.28893510514780
  C   0.15782833208504     -1.32119808261353     -1.83911357832545
  C   1.06045998821204     -0.51205828591124     -1.09024574471568
  C   0.59402596803151      0.26468069199613      0.01871715510474
  H   -2.70795165759531     -0.48933792469474     -0.29207352812710
  H   -1.85218059390587     -1.95803422272498     -2.08855611211156
  C   -1.46419039335728      1.14923304506234      1.28072260894121
  H   0.55299791942561     -1.90370530962095     -2.66196417725807
  C   1.55891450476594      0.96647892509243      0.78168477291657
  C   2.41015672825454     -0.50632984573182     -1.41382216817631
  C   3.33922507981851      0.26187505698890     -0.72597528485309
  C   2.91752559979632      1.05246694101032      0.39107907742018
  C   1.18355922374207      1.46064228620810      2.07652309431211
  H   2.75228173361988     -1.12669628798668     -2.23497957211031
  C   3.91384270687145      1.86659207067204      1.04929144351242
  C   4.71037896973724      0.22590533387269     -1.11196343951656
  C   5.63050467968263      0.95603894619508     -0.43804742045861
  C   5.21416845264047      1.79285610953852      0.62511293381750
  C   3.58809940191045      2.85908350264673      2.09330061369846
  H   5.94063533957347      2.44307711401376      1.09471170157523
  H   4.98970338799155     -0.39426288563061     -1.95455262593741
  H   6.67323771860161      0.93715134102636     -0.72563640697762
  N   0.90025974163543      1.79173714390917      3.13911409105146
  C   -2.46023102886860      0.77909883001146      2.07434169366473
  H   -1.10344811276894      2.16955082682760      1.32951745263775
  H   -2.82101152536093     -0.24242004260834      2.09256858390160
  H   -2.92367870322736      1.48292760060292      2.75187478349261
  C   4.33311568604858      3.07415584097658      3.16915449833985
  H   2.69806116067559      3.45755126178536      1.94072790964044
  H   5.20453848360352      2.46762933762757      3.38533583017106
  H   4.07355393197171      3.84507687057503      3.88154541609449
