33
Coordinates from ORCA-job 754optt
  C   -1.61622293487698     -0.72658287424480     -0.41825623422269
  C   -1.12421436390003     -1.52619668308676     -1.51338083031167
  C   -0.76292730869977      0.09623412717090      0.25812310652849
  C   0.19821123160101     -1.47160753584727     -1.83755018884753
  C   1.11070548447630     -0.62865429791107     -1.14252533589488
  C   0.61822328723772      0.17197064408923     -0.06828129900211
  C   -3.04600118423271     -0.77439545290838     -0.06350269805812
  C   -2.04161795074181     -2.42030368495161     -2.24277474980480
  H   -1.14644622738561      0.73224415230960      1.04669759203888
  H   0.58348038863050     -2.10550083202138     -2.62758708092702
  C   1.51550519824204      1.00606136476297      0.61660504004426
  C   2.45961711692850     -0.57180753131206     -1.47743389616100
  C   3.35183429251102      0.25440369261397     -0.79787605140160
  C   2.87741029343709      1.06700114357071      0.27717597749640
  C   1.02991403823942      1.81441518172780      1.69448746888565
  H   2.82735631104657     -1.18643209459916     -2.29201777964672
  C   3.80248126767933      1.90564310311258      0.96300334115939
  C   4.73341395545990      0.31203708994152     -1.14652240810314
  C   5.58731976147494      1.12323695067757     -0.47104187205695
  C   5.11191525178341      1.93056227641314      0.59891788178126
  H   3.44368489427131      2.52143295293135      1.77813096189809
  H   5.80498696765576      2.57169394330157      1.12762785066244
  H   5.08437404848430     -0.30738238228401     -1.96291152805499
  H   6.63408569217644      1.16089698485355     -0.74191567603751
  N   0.63960666035710      2.46040059540169      2.56059267964826
  C   -3.51200322495844     -0.70305789746162      1.17765591673750
  H   -3.74439005631694     -0.87907364282083     -0.88765421167217
  H   -2.84630496230453     -0.63835586746270      2.03020891345991
  H   -4.57481664882831     -0.71814517348743      1.37798604630470
  C   -1.99856361699928     -2.62944970354660     -3.55305399111253
  H   -2.79526325079665     -2.92779251480091     -1.64889657909485
  H   -1.28989768373274     -2.10751353654257     -4.18537720076056
  H   -2.68018672791885     -3.31784249758900     -4.03417316547439
