33
Coordinates from ORCA-job 755optt
  C   -1.49870727580700     -0.57975440652651     -0.42152992921087
  C   -1.06206561939762     -1.25511946535247     -1.60393328669723
  C   -0.59314641423532      0.13626793045927      0.31012007018519
  C   0.23571969974202     -1.22065817915810     -1.99328209971574
  C   1.20478796617533     -0.49789309385174     -1.23774662423061
  C   0.77639859295217      0.19495918258167     -0.06329186768506
  C   -2.91745593324567     -0.67770340251594     -0.04459191087014
  H   -1.79109129525655     -1.80680596450721     -2.18489238099899
  H   -0.91467952228105      0.68914416448074      1.18422721847429
  H   0.55957523904960     -1.73934464435860     -2.88732770434316
  C   1.73020261876186      0.91557936067786      0.67569365907623
  C   2.54239047310632     -0.44486172078913     -1.61666114343534
  C   3.48618419420720      0.26793127795107     -0.88393138985607
  C   3.08144691954272      0.97106072011132      0.29275182604515
  C   1.31310291446481      1.61389297928346      1.85381449407762
  H   2.85843314531852     -0.97431861728109     -2.50909876940909
  C   4.05558992401000      1.69244499005729      1.03355676451947
  C   4.85854764541848      0.31565424161919     -1.26717148052009
  C   5.75858691210917      1.01741509392897     -0.53591272683490
  C   5.36171635886186      1.73801798913574      0.63365773098343
  H   3.74616547017671      2.19695053838392      1.94063353234800
  C   6.38580159515311      2.49792408277565      1.36751148670927
  H   5.16591218671125     -0.22304599472843     -2.15519075407433
  H   6.79912937852624      1.04800703852163     -0.83542400795613
  N   0.97890930251802      2.17458498107884      2.79940293344418
  C   -3.40357988031696     -0.51930520214672      1.18087192395544
  H   -3.59861147161177     -0.92541426920181     -0.85320178755974
  H   -2.76351619809852     -0.31299732106720      2.03006604726299
  H   -4.46422840410835     -0.60450984292729      1.37376892697298
  C   6.15525093789342      3.53635539165070      2.16210898627447
  H   7.41010304237394      2.17501717293258      1.20721958678532
  H   5.15730241005874      3.92542746216581      2.32372332113241
  H   6.96710508722725      4.03953752661651      2.66921935515104
