43
Coordinates from ORCA-job 765optt
  C   -1.76288612894668     -0.60536848224075     -0.71072020949445
  C   -1.23994682384327     -1.26185215246203     -1.86145843816124
  C   -1.02431728042590      0.08318844991938      0.20709417221458
  C   0.09557489169397     -1.18605196801581     -2.06485183881023
  C   0.94643514830850     -0.49266709869030     -1.15163911077636
  C   0.41471857751823      0.15613048162401      0.01873552426780
  H   -2.83727136485955     -0.65079641237011     -0.56273785338477
  C   -2.19792109908661     -2.01445127486694     -2.75602498731567
  C   -1.79165624475207      0.72069291020714      1.35081080582127
  H   0.56196575489986     -1.64820163990844     -2.92577458460452
  C   1.35321177391706      0.80007254762556      0.86028089751701
  C   2.30817116250832     -0.46459756209138     -1.42370420605823
  C   3.22266446601702      0.17045393992292     -0.59539721354963
  C   2.74233213472965      0.81758108313843      0.57718219836956
  C   1.01913493301977      1.49309935637747      2.07035534678896
  H   2.66770787004873     -0.96277186511848     -2.31756638701862
  C   3.69569959032178      1.46237611661388      1.42091816963766
  C   4.61665421633253      0.18464487241155     -0.89202448054736
  C   5.49331927039147      0.80940740035977     -0.06577130095812
  C   5.01921048075114      1.45580990662473      1.10712435796380
  H   3.35638122643898      1.96073922173440      2.31831493118035
  H   5.72449617185357      1.95145008977925      1.76134707126521
  H   4.95506416382199     -0.31550280275439     -1.79126887297034
  H   6.55113868855978      0.81903121671091     -0.29242133753121
  N   0.87488733518212      2.06721148157323      3.05509643844091
  C   -1.49080401858895      0.04615116381668      2.70356610995176
  H   -1.76414364141105      0.69990541861460      3.53211094847159
  H   -0.44823696423219     -0.22718513725188      2.83616775991789
  H   -2.07391748787229     -0.87272533722661      2.77900361710967
  C   -1.74880993334198      2.25933525566489      1.30020827667298
  H   -2.83636366826166      0.47651709045062      1.15390762880165
  H   -2.05189952126340      2.68370335619179      2.25778555898065
  H   -2.44175848119035      2.60728341254945      0.53272749313717
  H   -0.77288045325368      2.66847026779651      1.05749487569107
  C   -1.60574948715950     -2.39214548083905     -4.10770668829116
  H   -1.21220545696254     -1.52118734639955     -4.63311307036216
  H   -2.36921825332401     -2.85373712689776     -4.73434754899497
  H   -0.79669657293997     -3.11653173263179     -3.99041960248280
  C   -2.71297591218792     -3.26424067461219     -2.03275488292471
  H   -3.05342998667919     -1.35262185765052     -2.93049586563694
  H   -3.45710159531453     -3.78037779990072     -2.64104904415821
  H   -3.16760040996457     -3.01599560545102     -1.07345054926073
  H   -1.88565707045272     -3.95163568232742     -1.84466410890907
