43
Coordinates from ORCA-job 766optt
  C   -1.64288577072286     -1.02657710397332     -0.53467731441928
  C   -1.11564997557131     -1.63787496345334     -1.69322896807430
  C   -0.92136139589400     -0.21499097814316      0.28973577340926
  C   0.17359669075745     -1.44866977923021     -2.07369549042178
  C   0.99676819630121     -0.59868329486295     -1.24622943681272
  C   0.46813594607877      0.02743189464649     -0.04877420857917
  H   -2.68140409632899     -1.21542308636444     -0.29103307652686
  H   -1.76509232631771     -2.26953959711426     -2.28729370843530
  C   -1.65874618827589      0.35361710421898      1.48848416880061
  C   0.64892494142854     -2.14742588524628     -3.33921302660258
  C   1.36332891648405      0.83328238567230      0.69822864393904
  C   2.32278420093216     -0.37583384814766     -1.60169581256371
  C   3.18961174503383      0.42086251426738     -0.86683969102260
  C   2.71002015869684      1.04348541186955      0.31485532233366
  C   1.02478990381504      1.51938012281028      1.91150147483617
  H   2.71531674822668     -0.83877376855403     -2.49202683182902
  C   3.61720762287950      1.85601314633417      1.05923643299140
  C   4.54107364218949      0.61921952159389     -1.27482040055648
  C   5.37610706687996      1.39978413776154     -0.54354199609108
  C   4.90035838489901      2.02450252441448      0.64069840435983
  H   3.27573615805923      2.34040866636398      1.96324324449296
  H   5.57220987905901      2.64521859041434      1.21903927825647
  H   4.88150121558408      0.13227331489508     -2.18073611251219
  H   6.40144373110648      1.55006379763333     -0.85420098366293
  N   0.88678934397511      2.11127190898039      2.88651894871944
  C   -1.15501406951393     -0.23692135788443      2.82057715764550
  H   -1.44538567645378      0.39645679507175      3.65913683621093
  H   -0.07744653337086     -0.36375466771714      2.86716902907939
  H   -1.59917338697961     -1.22343832939568      2.96034875856105
  C   -1.83274241514900      1.88422441017564      1.40545176170115
  H   -2.67282201002564     -0.03559702252422      1.39275685200709
  H   -1.99698262526638      2.31172135226190      2.39459622450072
  H   -2.69815837658829      2.10972219685991      0.78106183613135
  H   -0.98314855753448      2.39961466180738      0.96641465030107
  C   1.00915878259682     -1.19627707834441     -4.48690957738213
  H   0.21016075358240     -0.47222692760758     -4.64914650154771
  H   1.14015704183581     -1.76932835253345     -5.40639880536908
  H   1.92933397459275     -0.64015168497449     -4.31515015053673
  C   1.72226723793535     -3.21712812287629     -3.10322790112901
  H   -0.23196132061000     -2.69439928406908     -3.68409788756922
  H   1.85412550566671     -3.80585663376647     -4.01264556323040
  H   1.42040336977552     -3.89280922173331     -2.30239145747287
  H   2.69419356623074     -2.80400346953652     -2.83851989592984
