43
Coordinates from ORCA-job 772optt
  C   -1.53394258047699     -0.53077951717744     -0.70657258940550
  C   -1.08880283346282     -1.18716618471047     -1.89726245497038
  C   -0.62051147775455      0.11453593958048      0.07104330826809
  C   0.21576299470899     -1.18103238007019     -2.26278304719927
  C   1.19345409978580     -0.51761890412187     -1.46295666986298
  C   0.76267158388348      0.14211567995191     -0.27353725490481
  C   -3.00434050158985     -0.61517824032024     -0.36228104853626
  H   -1.82288740015033     -1.68964370406114     -2.51688057773095
  H   -0.92890398140089      0.62821540795295      0.97248550026024
  H   0.54018979631744     -1.67508751015102     -3.17071521859748
  C   1.72383909358078      0.79709184650701      0.51441596703904
  C   2.54002736943334     -0.49487057713300     -1.81220904898451
  C   3.48987759500569      0.15684328155563     -1.03188677555253
  C   3.08379282974186      0.82261984771952      0.16274885695229
  C   1.30471649320816      1.45853416976505      1.71365948422775
  H   2.85815434407046     -0.99925802379391     -2.71848415575866
  C   4.06691726156891      1.48677219873323      0.95329786418909
  C   4.87189464805322      0.18063276820044     -1.38551432881847
  C   5.77393950708765      0.82707888684539     -0.60839738118972
  C   5.37941636015057      1.50291965234804      0.58918572212313
  H   3.74041512777178      1.98084926037802      1.85928714781868
  C   6.44873492917887      2.22917115024060      1.37476482451165
  H   5.18292866243893     -0.33334368204945     -2.28706728174472
  H   6.82209063817242      0.83341148620451     -0.88523228298173
  N   0.96997886411686      1.98712618489022      2.67742323025685
  C   -3.44901530412016      0.37647046302607      0.70491006432675
  H   -2.99303322614266      0.14568124313900      1.66985085798389
  H   -4.53046536831301      0.32398247092470      0.83288601452036
  H   -3.18472373253733      1.40063457098072      0.43965171376527
  C   -3.35708551010905     -2.04636712961716      0.06042990831664
  H   -3.55425466134121     -0.39497433206595     -1.28405233985317
  H   -4.42864431660724     -2.13740608259151      0.24339017032315
  H   -2.82848394401078     -2.30265509470378      0.98078267306013
  H   -3.07698323739148     -2.77372174113468     -0.70202202336223
  C   6.02286529038843      2.62509858391628      2.78260561079560
  H   5.23228477508324      3.37781478439330      2.75604433047625
  H   6.86832300171406      3.05712127662163      3.31851413466195
  H   5.65846943834473      1.76854406766775      3.35059833414223
  C   6.91697795432110      3.46329146757707      0.59410372532654
  H   7.29910469838566      1.54284208057854      1.45436812419927
  H   7.73757606556777      3.95696384041862      1.11653015976049
  H   6.09457031789676      4.17479939734105      0.49649620461439
  H   7.25702433543126      3.20260109624404     -0.40847945246635
