43
Coordinates from ORCA-job 774optt
  C   -1.45784762872012     -0.63724845014268     -0.42019029968134
  C   -1.00525505657912     -1.48013079583209     -1.47076399894113
  C   -0.60134729118282      0.19132438494340      0.22585993756376
  C   0.29466506661605     -1.49084042530602     -1.87899014825866
  C   1.23324423816264     -0.62250625591662     -1.20699082426275
  C   0.77264567308030      0.21909689623921     -0.14714411124532
  H   -2.50201538284440     -0.66470944208326     -0.13676881916167
  H   -1.72656062140533     -2.12777025907333     -1.94976975983169
  H   -0.94296563564722      0.83341772871734      1.02731329694796
  C   0.75594300120728     -2.35601101866406     -3.03520035719525
  C   1.69791356667034      1.05052407743855      0.50254045065425
  C   2.58519870127780     -0.57904787499077     -1.54967295203877
  C   3.51258642120548      0.24439651433775     -0.91014499362208
  C   3.05601529555345      1.08653937071957      0.15112409960826
  C   1.23847004046250      1.89338999647199      1.56707887898915
  H   2.93081772256850     -1.21430818430726     -2.35008206881967
  C   3.98245735843310      1.93160957288272      0.82597097493145
  C   4.90956234155147      0.26414820746528     -1.27730289077095
  C   5.74945763968039      1.08595695643660     -0.58736930859009
  C   5.28849376256243      1.92421582930261      0.46322276425565
  H   3.62836751693317      2.56821572047360      1.62639702763406
  H   5.99672537215279      2.56143834073954      0.97674511989615
  C   5.40260447502291     -0.58651251201926     -2.43146323211350
  H   6.80187096046505      1.11225742795418     -0.83411129385241
  N   0.86856602563802      2.57120949625858      2.41755164978477
  C   -0.17726571274335     -3.52383415111095     -3.34187554286682
  H   -0.37837397035915     -4.12319595822190     -2.45346477466807
  H   0.27805607086698     -4.16815902952128     -4.09451663828285
  H   -1.12976734543088     -3.17655506692580     -3.74611064576925
  C   0.94487885889836     -1.50245474663147     -4.29643812122541
  H   1.72282097877917     -2.78783955041988     -2.76223396122579
  H   1.35413629166914     -2.10406686283816     -5.10963357853045
  H   1.60956820847124     -0.65615102274000     -4.12402004525070
  H   -0.02015177590912     -1.10555715253402     -4.61764005668002
  C   4.99035409788386      0.04120066059614     -3.76984746717990
  H   5.27048983486778     -0.60793496987246     -4.60104308074771
  H   5.49996928483086      0.99828266206701     -3.89720447011601
  H   3.91796060198972      0.22802504389247     -3.82333704520810
  C   6.90981131019881     -0.82564400585322     -2.42124897911424
  H   4.92661523028413     -1.56757946270292     -2.34872259604513
  H   7.17161264411801     -1.54320955036208     -3.19942390526403
  H   7.24910971850555     -1.21991231822872     -1.46294436827742
  H   7.45993211021410      0.09365017936170     -2.63006386542820
