29
Coordinates from ORCA-job 77optt
  C   -3.35496439137551      0.37623924729520      0.19207244258360
  C   -3.12372767930425     -0.99090214306780      0.06828471177241
  C   -2.24076725476709      1.23600456237360      0.31642952216904
  C   -0.95438656167401      0.70115468436860      0.27424278051306
  C   -0.73048361288748     -0.65031249506026      0.14034753990058
  C   -1.82519529058809     -1.53222627079132      0.04963506203167
  H   -0.11328311269860      1.37479316659904      0.37420812966915
  H   0.28348775731472     -1.01703498895426      0.12244329731078
  N   -4.64959379336382      0.89567109294299      0.24172546478949
  C   -2.39497300848697      2.62920690641444      0.58453030450911
  H   -3.97053570868768     -1.64711041768017     -0.04256836783681
  N   -1.63273334380290     -2.88146079679386     -0.06899247955291
  N   -2.50056440584183      3.75212794362868      0.80815611088484
  C   -5.01210068609899      1.90937061913285     -0.74218555991429
  H   -5.83440121320577      2.51033473085208     -0.35399695348089
  H   -5.33315895880330      1.43878766062393     -1.68158252987366
  H   -4.18170820817418      2.57387897282932     -0.95331599899996
  C   -5.73540161973031     -0.03051083908541      0.47473286569040
  H   -6.62988409169563      0.54443329879774      0.71309218757786
  H   -5.50582679379033     -0.67669214153990      1.32067140372297
  H   -5.96018006012733     -0.65557383845563     -0.40240300512160
  C   -2.76655086435631     -3.76908527933048     -0.19429793800629
  C   -0.29052059260531     -3.40900702174500     -0.18121577566656
  H   -3.43339020567229     -3.68466869828444      0.66820721600553
  H   -2.41210081894248     -4.79459973344862     -0.24527216144825
  H   -3.34928918799223     -3.56228728430048     -1.09826046378065
  H   0.23395958821077     -2.99641613366585     -1.04863793055030
  H   -0.34070321353115     -4.48805017830835     -0.29552796823218
  H   0.30113733267849     -3.18946462534657      0.71172809333383
