25
Coordinates from ORCA-job 789optt
  C   -1.51770179922919     -0.73334074397323     -0.37791522387495
  C   -1.06966626439879     -1.41271098785340     -1.54550672308279
  C   -0.67784141411710      0.01969887572292      0.36530249889672
  C   0.21433903136447     -1.32604308889303     -1.94911688809510
  C   1.13992218587237     -0.54076913342738     -1.19911956670739
  C   0.68702297130525      0.14063608666475     -0.02619638134618
  F   -2.79848005393216     -0.87048878765649     -0.05090164739904
  F   -1.96567017877694     -2.13091196873538     -2.21720318313650
  H   -1.04916366661036      0.52416156926760      1.24785496261922
  H   0.53332244860958     -1.85081524241014     -2.83977791472764
  C   1.60667398124484      0.91041095761685      0.70087426243305
  C   2.47014660967607     -0.42404137697770     -1.58736810293653
  C   3.38281032756270      0.34209605390556     -0.86648332602673
  C   2.94993447854672      1.03032902566084      0.30722502623166
  C   1.16012346832236      1.59383898160709      1.87731319681097
  H   2.80655454782235     -0.94360875972274     -2.47764735203224
  C   3.89416125933105      1.81190480202854      1.03274289806117
  C   4.74490733491672      0.45998583256389     -1.27176839360872
  C   5.61812735357049      1.21457464673420     -0.55680403652214
  C   5.18366125403904      1.89896330606776      0.61169056912509
  H   3.56690563166693      2.33435618668477      1.92275790069634
  H   5.89234724829904      2.49623458483807      1.17010527442161
  H   5.06442862832470     -0.06555555215363     -2.16329414643652
  H   6.64985822158081      1.30010293415929     -0.87086595889612
  N   0.79623639500902      2.13922179828101      2.82044225553277
