29
Coordinates from ORCA-job 78optt
  C   -3.52841181608775      0.48508886803156      0.09240879333831
  C   -3.24597422197724     -0.90750049021996      0.04641552857170
  C   -2.44298322379949      1.37394028519508      0.00364074192367
  C   -1.12371526443942      0.92898697046627     -0.11170776338868
  C   -0.86465841173094     -0.42318601490865     -0.09837337640985
  C   -1.92052976035488     -1.32551664639680     -0.01751226205067
  H   -0.32576763152021      1.65607952687440     -0.17073075044061
  H   0.15165210465105     -0.78637290838499     -0.16337476018063
  N   -4.81925029310456      0.96337363174878      0.23289870343494
  C   -2.66961901951647      2.78288236762617      0.14330361236654
  N   -4.31731609328732     -1.82506217675110      0.05574232276705
  H   -1.70274278646834     -2.38401133486662     -0.04542491529002
  N   -2.83097090822847      3.91262479269763      0.27299680318634
  C   -5.35895035376288      2.00781194110565     -0.61183436764091
  H   -5.53271512303357      2.93788576643022     -0.06397100398547
  H   -6.31234123158833      1.67229481447641     -1.03691193538055
  H   -4.67763340515454      2.21987146535724     -1.43332570937626
  C   -5.74378247980669      0.39630644015455      1.18777771052609
  H   -6.25562336619385      1.21294654206058      1.70464030621715
  H   -5.21059913461934     -0.19911169244972      1.92288473769934
  H   -6.50253028323189     -0.23842919020413      0.71372884705908
  C   -3.99473370216114     -3.19702164773662      0.38332817546540
  H   -3.44113446785682     -3.71268687699304     -0.41578544435143
  H   -4.92499251838386     -3.74100273017478      0.54781385522134
  H   -3.40463203562989     -3.23543421957242      1.29827097622708
  C   -5.18300484402388     -1.74754269861833     -1.11465080392325
  H   -4.69520683985767     -2.17576110079708     -2.00164113980810
  H   -5.44169259608828     -0.71319962871392     -1.32875565060576
  H   -6.09971029274283     -2.30567405543639     -0.91999123117183
