25
Coordinates from ORCA-job 790optt
  C   -1.51957201258447     -0.75210758212238     -0.39880551694887
  C   -1.10027870154086     -1.44015522194791     -1.56357781097948
  C   -0.69309720231816      0.01046536949868      0.35466904556153
  C   0.19458374262573     -1.33392531278389     -1.95204599181878
  C   1.12214092334922     -0.54615692260107     -1.20735884018415
  C   0.66936995535205      0.13512825240204     -0.03501670295144
  F   -2.80363542419044     -0.88093124550481     -0.05083712526300
  H   -1.82293412878984     -2.03008126600177     -2.11001412057616
  H   -1.06732206877822      0.51417914755330      1.23608372787723
  H   0.54619921326461     -1.84768502776821     -2.83794697416898
  C   1.59008923142657      0.90673557893968      0.69243902695462
  C   2.45277297389977     -0.42807443003503     -1.59653727240867
  C   3.36557554094959      0.33634490697312     -0.87695743457145
  C   2.93318821471876      1.02452535066539      0.29904500223584
  C   1.14831304702648      1.59193180504163      1.86823347188868
  H   2.78841861289988     -0.94783042826645     -2.48736165581582
  C   3.87340471814535      1.80212769465212      1.03026384012811
  C   4.72811975891398      0.45024076509908     -1.28465109073609
  C   5.60890189078825      1.19686585607546     -0.57370004875528
  C   5.15092839909785      1.86539016191968      0.58787017609266
  H   3.57893363198529      2.33446418611994      1.92499054696764
  F   6.04988834922858      2.58828843519964      1.26213551880076
  H   5.04679668643940     -0.07354109547474     -2.17712135376135
  H   6.64629446848452      1.29968282749665     -0.86037250435940
  N   0.79587017960609      2.14232819486983      2.81293408679185
