25
Coordinates from ORCA-job 791optt
  C   -1.55906968064742     -0.74292169981856     -0.36447936858785
  C   -1.08806448511872     -1.40805684523038     -1.52289016112617
  C   -0.69825665781871      0.01295031511584      0.36310173742885
  C   0.19231255628652     -1.32693320947298     -1.94590149606409
  C   1.11881845158383     -0.54027593060203     -1.20113583539583
  C   0.66735020943131      0.14023598859355     -0.02803849835520
  H   -2.59836346862894     -0.85392141302822     -0.08686277509610
  F   -1.97353793108314     -2.14125622508982     -2.20735214108097
  H   -1.03982892818447      0.52881871460574      1.25138271550572
  H   0.50804489664382     -1.85212413067334     -2.83724968510080
  C   1.58773745722483      0.91092600417016      0.69763025476517
  C   2.44997858862674     -0.42298960434560     -1.59147559165036
  C   3.36290413068595      0.34093102847183     -0.86980232149685
  C   2.92962438917975      1.02910585134438      0.30568774677591
  C   1.14442005002626      1.59680733339655      1.87520229110370
  H   2.78488782395182     -0.94213056045581     -2.48214259537286
  C   3.87311311369911      1.80893070383241      1.03753889326756
  C   4.72479055188792      0.45256293990468     -1.27634851549677
  C   5.57007247172905      1.20606328673693     -0.53938181102670
  C   5.16396680065248      1.89741511504836      0.62807488774299
  H   3.54488418176938      2.33049446878432      1.92748653602739
  H   5.89628763531503      2.48209537757297      1.16777100258459
  H   5.07747744430459     -0.05864944764018     -2.16194978964427
  F   6.85309038762890      1.32371382511423     -0.90192593896370
  N   0.79029001085410      2.14641811366497      2.81941045925662
