25
Coordinates from ORCA-job 793optt
  C   -1.55916916660630     -0.74091566326204     -0.34937048505372
  C   -1.13427482729938     -1.42613663410614     -1.51658302294980
  C   -0.69585283706506      0.01911544532259      0.37231825143755
  C   0.15319420153507     -1.31687709963272     -1.91572346296460
  C   1.11221270322558     -0.53595968723364     -1.20354559294933
  C   0.66593607274630      0.14618591956610     -0.02547169404020
  H   -2.59064973038444     -0.83148516456802     -0.03644592757784
  H   -1.81454036904458     -2.03491732423893     -2.09529078667580
  H   -1.02676174104742      0.53855962318722      1.26159238074347
  F   0.54917332634358     -1.96302659925411     -3.01379030225021
  C   1.58365486283821      0.91939725457629      0.70240134496796
  C   2.44681420519644     -0.39757905142264     -1.57654567135815
  C   3.36962352542291      0.35721549517063     -0.85778883565061
  C   2.92716939904848      1.03699572277649      0.31348533795012
  C   1.13838514360087      1.60708172314012      1.87533977451625
  F   2.88791435820440     -1.00960893561839     -2.67240809549454
  C   3.87528390915422      1.81055426101012      1.04224719231462
  C   4.73033820079392      0.45911876185525     -1.26722624841545
  C   5.60306004672671      1.20458802740635     -0.54147995664954
  C   5.16699039409132      1.88825777019075      0.62622317035295
  H   3.54743922617685      2.33249409815686      1.93207461842559
  H   5.87714803137037      2.47855227710199      1.19025518245717
  H   5.04680831851323     -0.06628989331266     -2.15706607100846
  H   6.63728872456972      1.28183041015532     -0.84878848234422
  N   0.78575402188900      2.16105926303321      2.81795738221681
