25
Coordinates from ORCA-job 794optt
  C   -1.55862131406033     -0.82763603717301     -0.47263890731859
  C   -1.07433622204442     -1.46824093654348     -1.63863109296501
  C   -0.74472131689214     -0.06446913670961      0.30688619234988
  C   0.22638206647155     -1.32813322941395     -1.98751373162810
  C   1.11136453197579     -0.53692013068438     -1.19914218413708
  C   0.64138287714377      0.13415363243541     -0.01734666373981
  H   -2.59378437221724     -0.94319289633322     -0.18303945522107
  H   -1.75040274956995     -2.06641005350669     -2.23407235847966
  Cl  -1.45902976155773      0.64343168537641      1.71214424616969
  H   0.62475366508875     -1.81208075430046     -2.87010074813027
  C   1.56581040440842      0.91451735478647      0.70556260772556
  C   2.44268417150131     -0.41965404258939     -1.58337256332291
  C   3.35714724951139      0.33644852208483     -0.86502150732448
  C   2.91665386414063      1.02398898675491      0.30441864197568
  C   1.23550926671520      1.66501860380207      1.88500529696088
  H   2.77224860142090     -0.93843425100805     -2.47675351309202
  C   3.87151795758444      1.80260942524454      1.02477855115599
  C   4.72012958490943      0.44124624455896     -1.27226120475848
  C   5.59874649130351      1.18937740457873     -0.55956008532699
  C   5.16223505265292      1.87805411682423      0.60519963357490
  H   3.55615440386167      2.33287581864971      1.91263388279270
  H   5.87169701742185      2.47233722917207      1.16590376278886
  H   5.03222269331436     -0.09047423261867     -2.16269907517846
  H   6.63203614829291      1.26684627420213     -0.87055702598395
  N   1.12517968862296      2.31293040241038      2.82651730111272
