25
Coordinates from ORCA-job 797optt
  C   -1.56282884150344     -0.71945929605162     -0.33925361240718
  C   -1.13546371976596     -1.40734499399583     -1.50546462704125
  C   -0.69648891017167      0.03321945651355      0.38534109166658
  C   0.15614397257342     -1.31571673563903     -1.90915068608534
  C   1.11782745921883     -0.53542309773448     -1.18906848557903
  C   0.66575009138641      0.14818738317398     -0.01475440382395
  H   -2.59681826592809     -0.80436644641371     -0.03285530809421
  H   -1.83420618298671     -2.00518599573953     -2.07361870346588
  H   -1.02611425289809      0.55494849919392      1.27430117777652
  Cl  0.65249145424867     -2.16858451542369     -3.33238042783308
  C   1.59012528495729      0.91661485229503      0.71026446320778
  C   2.44817040128459     -0.41808292239128     -1.57882312515086
  C   3.35977908716965      0.34744718597340     -0.85646693140687
  C   2.93240106868148      1.03541440974795      0.31865344419976
  C   1.14950312185502      1.60205724080724      1.88877315909872
  H   2.78834915995893     -0.93404966679785     -2.46695577523045
  C   3.88035727665026      1.81246750602003      1.04493746952771
  C   4.72159977267706      0.46220639094604     -1.26507166527222
  C   5.59864531237380      1.21207834326168     -0.55021869982282
  C   5.16896635839772      1.89520565914998      0.62137774813113
  H   3.55662313190725      2.33374371268780      1.93687126416703
  H   5.88125490907599      2.48803159607724      1.18008554858642
  H   5.03675509174584     -0.06254814861984     -2.15848788088176
  H   6.63003447542186      1.29494751848182     -0.86615841627661
  N   0.80008274366983      2.15238206447719      2.83446338200987
