25
Coordinates from ORCA-job 805optt
  C   -1.57696197508371     -0.83743347387733     -0.47525997211283
  C   -1.09813334666864     -1.47786173646327     -1.64289400026863
  C   -0.75965704348868     -0.07513074277333      0.30236555240107
  C   0.20201327500035     -1.33958410641895     -1.99601897658868
  C   1.08943571478539     -0.54983782512490     -1.21020697278660
  C   0.62482759535250      0.12222575001256     -0.02749921496322
  H   -2.61109407994806     -0.95234933901173     -0.18160527451459
  H   -1.77695790931951     -2.07495874074948     -2.23620666530337
  Cl  -1.46727256617507      0.63055411131082      1.71131668698796
  H   0.59697889870627     -1.82419978433684     -2.87972940636408
  C   1.55139581978528      0.90370307937506      0.69312441921010
  C   2.42074702419493     -0.43456562591532     -1.59781275059646
  C   3.33602654052873      0.31963965048197     -0.88138638758982
  C   2.90128826320644      1.00913584704366      0.28868071382638
  C   1.22426196731073      1.65853065098793      1.86996359741867
  H   2.74786558395585     -0.95359220216583     -2.49180745088474
  C   3.85386915267539      1.78670346074242      1.01101545018392
  C   4.69885600056088      0.42291452187732     -1.29038215261263
  C   5.58401005774501      1.16636215094073     -0.58494587313059
  C   5.13933364964409      1.85098264093251      0.57914045199313
  H   3.55314057681371      2.32177482123219      1.90073157338909
  Cl  6.29875926275281      2.78834308023580      1.45231638688662
  H   5.01248708206644     -0.10755922074061     -2.18073616798167
  H   6.61917632949027      1.25239314933261     -0.88391460336543
  N   1.11854412610854      2.31201988307200      2.80811103676645
