25
Coordinates from ORCA-job 806optt
  C   -1.57534576613885     -0.69966985598683     -0.53626852947655
  C   -1.07011081679719     -1.46803076466115     -1.61239196174140
  C   -0.76241147108684      0.09507513999249      0.21366551201444
  C   0.24045931247385     -1.37756481445152     -1.94111826631515
  C   1.12276091251985     -0.55740651488536     -1.18057180801806
  C   0.65243558272398      0.16483937176169     -0.03455717580776
  H   -2.63437391218825     -0.70766312749593     -0.31882845412344
  H   -1.74612807639835     -2.09161065848779     -2.18126524677192
  Cl  -1.53729466138337      1.10848450626387      1.37849517986506
  H   0.64660052365901     -1.91943350012363     -2.78559523310164
  C   1.59538676666811      0.87477630684289      0.74524407438079
  C   2.46309419708171     -0.47896802711188     -1.53151851668156
  C   3.36564149184470      0.32601527856867     -0.85113114876723
  C   2.92652383060830      1.05624458475329      0.30236892286192
  C   1.26616563889239      1.19701533972508      2.10585890305973
  H   2.81594438611518     -1.05969375744137     -2.37618718372762
  C   3.90398311654523      1.92092154143629      0.90675354009456
  C   4.72112714722244      0.38960482371351     -1.28510021293944
  C   5.61815510416925      1.16379225709826     -0.62980521852334
  C   5.19139903253429      1.95455620135498      0.46389804487059
  Cl  3.48322015289100      3.06163356136168      2.13409580846588
  H   5.88520349292943      2.63142280632747      0.94283225113507
  H   5.00860776330155     -0.19358217798274     -2.15054631884294
  H   6.65000923827171      1.21487255691728     -0.94943510544066
  N   1.05189701354072      1.31259892251073      3.22743814353068
