25
Coordinates from ORCA-job 809optt
  C   -1.53451051982849     -0.75805716767808     -0.39814814408035
  C   -1.09395680198849     -1.43897735171037     -1.56694940452971
  C   -0.69657353592646      0.00385332583308      0.34950455630265
  C   0.20035001911359     -1.32971448229609     -1.95355340078106
  C   1.12782420365367     -0.54280347563977     -1.20745062745470
  C   0.66752173335873      0.13374550357946     -0.03638148913466
  Cl  -3.19242909249898     -0.92600203112629      0.05652477974885
  H   -1.80253757812724     -2.03309186477109     -2.12678847051045
  H   -1.05685366602724      0.51181276540733      1.23440745519053
  H   0.55147139893589     -1.84189861608165     -2.84066968600243
  C   1.58265577624004      0.90677593713924      0.69536793416502
  C   2.45842467966199     -0.42324987714764     -1.59325657068749
  C   3.36654958501819      0.34306994345149     -0.86659395756625
  C   2.92564022449861      1.02730610826453      0.30627412546987
  C   1.13515840794651      1.59049965796186      1.87157183872670
  H   2.79775889642196     -0.94104614433550     -2.48344518974669
  C   3.86774405415182      1.80743983988528      1.03784433216533
  C   4.72867406968122      0.45828349091302     -1.26911753610617
  C   5.58633034283255      1.21202435157088     -0.53892793656133
  C   5.15913348628226      1.89862237450752      0.63040311959200
  H   3.53956618017402      2.32917399377345      1.92785435625853
  H   5.87716487599239      2.48892746451616      1.18266887857454
  H   5.06722244804931     -0.05885861449019     -2.15714288445368
  Cl  7.24232285145293      1.36125324951875     -1.01305371277860
  N   0.77829796093118      2.13912161895464      2.81538763419956
