26
Coordinates from ORCA-job 816optt
  C   -1.55613994323615     -0.73338160802917     -0.35445257505685
  C   -1.12237557573008     -1.41503744002252     -1.52158529381523
  C   -0.70448669720315      0.02517972434351      0.38337815405678
  C   0.17343398865563     -1.31689576145952     -1.92363271348469
  C   1.11438071456941     -0.53024163665372     -1.18221815472027
  C   0.65880591777935      0.14861243090535     -0.01032032271445
  H   -2.59158517654081     -0.82633953701506     -0.05414556940603
  H   -1.82387533237301     -2.01307413079140     -2.09123341462830
  H   -1.04575270719171      0.54059131804544      1.27105870637792
  O   0.66640987757702     -1.93609053313191     -3.02569710858718
  C   1.58695972674137      0.91681666499097      0.70952421418228
  C   2.44056895411159     -0.42217252724972     -1.58166131819596
  C   3.35714123275074      0.34194181321364     -0.86196016191746
  C   2.92982284684659      1.03164180021198      0.31250532568719
  C   1.15089421297132      1.60567185410678      1.88721368465708
  H   2.76666551433259     -0.94411953989406     -2.47206072855408
  C   3.88037345455049      1.80852815822010      1.03527467294374
  C   4.71832350358671      0.45321602721551     -1.27111004110405
  C   5.59825473956902      1.20283546715762     -0.55862966962015
  C   5.16945671753114      1.88863731317011      0.61096948630637
  H   3.55857018869334      2.33250589124898      1.92638282730914
  H   5.88231186675671      2.48194849687420      1.16858327374314
  H   5.03147826339461     -0.07425513463533     -2.16376945326388
  H   6.62967831351762      1.28293941357678     -0.87519944572681
  N   0.80503285266648      2.15913063973873      2.83262174617994
  H   -0.03185745432686     -2.43901916413730     -3.45671612064819
