27
Coordinates from ORCA-job 820optt
  C   -1.56848866940875     -0.78021316018294     -0.41880589337164
  C   -1.10426541641755     -1.44928518051990     -1.58070820902493
  C   -0.74139806208413     -0.01532033321414      0.34144071355135
  C   0.19261348180953     -1.33498722103012     -1.95687172274079
  C   1.10432465979961     -0.53876947599596     -1.18953892389244
  C   0.64010838669346      0.13878906606522     -0.01567776696800
  H   -2.60850137931018     -0.88288692317146     -0.13207331190805
  H   -1.79381568208531     -2.05040430140914     -2.16102973186400
  O   -1.15776439311243      0.63437418357729      1.45684987658600
  O   0.72058355785649     -1.94407768628238     -3.05505404329873
  C   1.55788571054278      0.91174784203932      0.71520581505883
  C   2.43093656087536     -0.42434045614062     -1.58059462518120
  C   3.34185444871511      0.34022122268168     -0.85836608217151
  C   2.90734522126282      1.02561508349721      0.31379849689188
  C   1.20277246224011      1.63312493172781      1.90533737717676
  H   2.75997350893901     -0.94460060756697     -2.47040107415319
  C   3.86007372238917      1.80250115057855      1.03606944349520
  C   4.70254957222442      0.45147782884698     -1.26852929159589
  C   5.58213987475950      1.20076018658932     -0.55610902508597
  C   5.14976120164109      1.88386454010378      0.61259979118225
  H   3.54248024777420      2.32692904392851      1.92716142230354
  H   5.86011126749136      2.47779470132346      1.17272076197310
  H   5.01372263929109     -0.07616496433904     -2.16171493762841
  H   6.61381162367241      1.28214806893496     -0.87175262811195
  N   1.05426101575801      2.25221082104547      2.86077333499624
  H   -2.09351188967697      0.46988795028772      1.60757922996200
  H   0.03726632835976     -2.45235631137460     -3.50228899618047
