27
Coordinates from ORCA-job 822optt
  C   -1.56929462163983     -0.80052357829820     -0.43936096203339
  C   -1.10094181884955     -1.43206822870460     -1.61787030519504
  C   -0.73563134744231     -0.04995799957339      0.33502203298437
  C   0.19432986321209     -1.30281281265176     -1.99552218156693
  C   1.09803087874955     -0.52813044123567     -1.21071872577921
  C   0.64416654976915      0.12629028426103     -0.02318178192078
  H   -2.60578692727832     -0.91357258581766     -0.14338917033337
  H   -1.79072239460800     -2.01921799543420     -2.20914333720762
  O   -1.14846677359808      0.56120103898720      1.46634578713171
  H   0.56630499733714     -1.78232686147112     -2.89154345462118
  C   1.55849786508762      0.90051056868870      0.71174748549533
  C   2.43029607679745     -0.39892749663226     -1.59314504751748
  C   3.34750053491069      0.34409287704631     -0.86196252318662
  C   2.90691790095469      1.03096731901731      0.31429972663222
  C   1.19192464663666      1.61677275973297      1.90187483505368
  H   2.71780912093148     -0.89796208943232     -2.51192957508121
  C   3.83606799100390      1.82890100981363      1.03980010471460
  C   4.72641235173538      0.46105064594749     -1.24702443383720
  C   5.58308621638174      1.23631873814930     -0.53073863595038
  C   5.12432352525248      1.92646820522553      0.61672972160189
  H   3.50485986476085      2.35325461594220      1.92455647538860
  H   5.82492236896706      2.53688546125485      1.17124814355286
  O   5.20935535564067     -0.17936101553184     -2.34192744715171
  H   6.61432599620407      1.30561781092165     -0.84827647603806
  N   1.02116188423692      2.23283085084182      2.85527758889820
  H   -2.08454204546616      0.39386877493560      1.61540316484681
  H   4.59743194031257     -0.85435985598260     -2.64610100888008
