27
Coordinates from ORCA-job 824optt
  C   -1.57005503021128     -0.80521577798718     -0.45133281161468
  C   -1.10107359046736     -1.46808912755246     -1.61231045175582
  C   -0.73640396031280     -0.03971000067609      0.30866798856867
  C   0.19620550824042     -1.35073285817246     -1.98736167115796
  C   1.09909479010210     -0.55899626209842     -1.21872846100015
  C   0.64603362238179      0.12076572669998     -0.04368611902125
  H   -2.60860115309822     -0.90458850436894     -0.15700860607356
  H   -1.79090014098126     -2.06693280827230     -2.19162406138723
  O   -1.15451613246125      0.60352632537627      1.42169034207244
  H   0.57186996150103     -1.85079795503428     -2.87049845113042
  C   1.55945240921980      0.89760847499968      0.69302122612207
  C   2.43215905995870     -0.43755381710357     -1.60032793686640
  C   3.33976155481088      0.32379884205340     -0.87901974600785
  C   2.90972175313474      1.01440820618251      0.29574671985514
  C   1.20034512671045      1.61850891110544      1.88074434265843
  H   2.76894131936908     -0.95645850139323     -2.49112863804908
  C   3.85271336599812      1.79175784889154      1.01960842580442
  C   4.70242267249366      0.43609911482402     -1.28405795138896
  C   5.57984571333699      1.18423345688534     -0.57376504024048
  C   5.14420314185794      1.87181233180488      0.59549972324708
  H   3.55501054796347      2.32556848058582      1.91163649109858
  O   6.01490617403477      2.62476796268794      1.31175475655993
  H   5.02294846823494     -0.09017166597166     -2.17457971328540
  H   6.61534567359085      1.26766956253645     -0.88459620900008
  N   1.04525154150447      2.23774903026020      2.83527592891857
  H   -2.09062957638774      0.43797703514212      1.57151060252428
  H   6.88955717947570      2.59697596859497      0.91250932054971
