27
Coordinates from ORCA-job 830optt
  C   -1.54397047963257     -0.79508023228089     -0.47761431395937
  C   -1.05611403908975     -1.47358200954205     -1.61236161089755
  C   -0.74921154578741      0.00978537681012      0.30403385120558
  C   0.24532878084082     -1.35564581812155     -1.97620414342368
  C   1.12389991493259     -0.54710158607694     -1.20217635840114
  C   0.65151767241568      0.14826206509240     -0.03645747076647
  H   -2.58945211619544     -0.89587750475161     -0.21191795848569
  H   -1.73521425330325     -2.08830211533004     -2.18855620694416
  N   -1.33249050888587      0.71240109101077      1.33773149661834
  H   0.63967742048717     -1.86361389116757     -2.84601595579586
  C   1.59098477019688      0.91463359129219      0.68503789667463
  C   2.45785678301809     -0.42858865226500     -1.58411612672023
  C   3.37464838684330      0.33866949451284     -0.87988200793422
  C   2.93978134898359      1.02968734002727      0.28806482626224
  C   1.25618343662791      1.61164225337602      1.89116989827342
  H   2.78904997545708     -0.96138568317235     -2.46882764984813
  C   3.89343168876147      1.80789372223175      1.00902561665403
  C   4.73638796411131      0.44830358529046     -1.29096109552886
  C   5.61502094921439      1.20030892555834     -0.58171001204009
  C   5.18255624409255      1.88829704244959      0.58560475145471
  H   3.57956490244027      2.33666616496285      1.89927488450829
  H   5.89310114320636      2.48417122878734      1.14323415754410
  H   5.04825625116963     -0.08325510814236     -2.18167013686888
  H   6.64681627916791      1.28108593619103     -0.89693333194445
  N   1.04505095587720      2.16794788997766      2.87485746389287
  H   -2.26547101565434      0.42144564803280      1.57720278849257
  H   -0.78795090929567      1.01108124524688      2.12749674797800
