29
Coordinates from ORCA-job 839optt
  C   -1.56118862953786     -0.78709724561022     -0.46575894081378
  C   -1.08424082782318     -1.41570275348665     -1.63231527939546
  C   -0.76127819504691     -0.00737408340605      0.33723796116480
  C   0.21305751131218     -1.27512147458022     -2.00568855053917
  C   1.09504793762172     -0.49575243052787     -1.20805363760872
  C   0.63276895274596      0.15570690962714     -0.01729750532808
  H   -2.60237347033876     -0.90540926789663     -0.19048187483686
  H   -1.76647895147386     -2.01078851729760     -2.22512659672612
  N   -1.33578387766448      0.64563852860824      1.40687079593666
  H   0.59960941334907     -1.74654457604116     -2.89938509797491
  C   1.57593785204147      0.91638501597172      0.70656358266691
  C   2.42869093024737     -0.36280573421053     -1.59539354553759
  C   3.35503261801371      0.37287936371194     -0.87431066692059
  C   2.92109461807873      1.05519111899623      0.30319817665506
  C   1.24126516758420      1.59422304157540      1.92379748133993
  H   2.72128772920956     -0.84752768897670     -2.51846984390334
  C   3.85104809395197      1.85966525905681      1.02151008356024
  C   4.73344093481456      0.47683029708557     -1.28320872274066
  C   5.58409590104626      1.26930055121097     -0.56616108071419
  C   5.13250305350175      1.96495712795520      0.58013262884878
  H   3.53077030594866      2.38528209906521      1.90977106656611
  H   5.83574488048644      2.58240330438322      1.12389645110048
  N   5.14914665951239     -0.18553970318460     -2.43313015821566
  H   6.61992903351015      1.35512752774943     -0.87094687659384
  N   1.02496597096833      2.13251912020161      2.91630164508296
  H   -2.26064580370602      0.33476571969617      1.65188115575071
  H   -0.78102029182468      0.93175225656221      2.19399992819134
  H   4.75269938862133     -1.10143067030347     -2.57646342832443
  H   6.14934309484987     -0.19530309593535     -2.56072915069055
