29
Coordinates from ORCA-job 842optt
  C   -1.55377163157213     -0.77151690888054     -0.51878803955440
  C   -1.05905726541239     -1.47116423496191     -1.63748123364761
  C   -0.76336388363544      0.02932861754717      0.27190000406221
  C   0.24912641818326     -1.37127264038508     -1.97868932395149
  C   1.12251961250918     -0.57118626955224     -1.19026154856836
  C   0.65173549255196      0.12746400561176     -0.03094107328531
  H   -2.60854623224281     -0.84043819035814     -0.28084855612612
  H   -1.73819656622844     -2.07812116074030     -2.22170547636334
  N   -1.38007658312201      0.79643995461630      1.24462443513528
  H   0.65339835775151     -1.88329827153218     -2.84157067031130
  C   1.60302436955555      0.86580805853805      0.71587969730714
  C   2.46107000903568     -0.46895527543359     -1.54446625818439
  C   3.37806155951079      0.31500924055144     -0.85766258493766
  C   2.95046553627180      1.02934781238573      0.30874499714488
  C   1.23107826914586      1.32184129021129      2.01946205562572
  H   2.80595751838455     -1.02165448746476     -2.41137110231726
  C   3.93163925140697      1.87114914836041      0.96624350755661
  C   4.72208480152060      0.38736182893410     -1.31940509457687
  C   5.61958460555602      1.15344235746465     -0.65220647959895
  C   5.21841934137165      1.88767865000598      0.48161889681137
  N   3.60720070128718      2.75140416748329      1.98375923740174
  H   5.94362826247661      2.51762519399137      0.98274633747085
  H   4.99734470502596     -0.17382949156028     -2.20230861819356
  H   6.64723852870605      1.21812422877106     -0.98496815830533
  N   0.95726575150150      1.61154649827086      3.09903341310276
  H   -2.34827312185790      0.56465893458316      1.39591146080572
  H   -0.89536768380099      1.01744206271197      2.09688183865660
  H   2.90854122096330      2.50355928969004      2.66244834396478
  H   4.40266865515608      3.21239559114032      2.39462999287629
