29
Coordinates from ORCA-job 846optt
  C   -1.53065169323895     -0.78143553749566     -0.27083539100111
  C   -1.14134792310441     -1.38550688316630     -1.48418030428549
  C   -0.65604683079456     -0.02319816267089      0.43909835668299
  C   0.13679627577348     -1.26398125301876     -1.95518442166464
  C   1.12812016856171     -0.55532256805143     -1.18306433827368
  C   0.68926496450003      0.12497455362410      0.00036134573458
  H   -2.55038903344347     -0.89758334779760      0.07260547127302
  H   -1.87286399790403     -1.92175161542803     -2.07635221576386
  H   -0.96435892475841      0.47643758954857      1.34721968201958
  N   0.47256862315880     -1.84364941790626     -3.19328950707294
  C   1.59607716469430      0.90817958739453      0.73254725984577
  C   2.50560419332744     -0.52349712868294     -1.51358142004530
  C   3.38770883907383      0.34853291059762     -0.82277991531837
  C   2.92838353775583      1.06155568539239      0.31732892915199
  C   1.15768955177217      1.56809571016258      1.91952213548321
  N   3.02514895225957     -1.32431899220928     -2.50439372472181
  C   3.84419912620911      1.89446016145398      1.02162925828773
  C   4.73757383879439      0.53049585170240     -1.23724712597303
  C   5.58426229046510      1.34700583484889     -0.55207113083002
  C   5.13121306935513      2.02899158301648      0.60379135299819
  H   3.49098979162700      2.42350518813390      1.89756165923543
  H   5.81206077463885      2.66966896785983      1.14873025901991
  H   5.09874463257411      0.05557461272679     -2.13953957586701
  H   6.60013837004205      1.48680114695843     -0.89621127572024
  N   0.81293103725691      2.10329128897627      2.87733795967331
  H   -0.34442901316695     -2.18307805458505     -3.68047864297027
  H   1.00298387848632     -1.22673094470091     -3.79570427217976
  H   2.47580872517904     -2.13248867811501     -2.75559693204007
  H   4.01165961090557     -1.50795808856864     -2.44028347567811
