33
Coordinates from ORCA-job 854optt
  C   -1.42625112526682     -1.09050341988371     -0.35800587706561
  C   -0.88610962383866     -1.93222571799303     -1.35606058284446
  C   -0.68493712607133     -0.13211045498616      0.27550875691685
  C   0.42104856064210     -1.85321368365776     -1.70977667675098
  C   1.26742049776545     -0.88948563951246     -1.05287332196297
  C   0.71630959308346      0.02169288064561     -0.07993318005642
  H   -2.46775128110548     -1.22520710377279     -0.11411970013310
  H   -1.53076074757518     -2.65182934966465     -1.84339109432243
  S   -1.40275910011622      0.87664450595467      1.52813272429151
  S   1.03842362795985     -2.95949763395700     -2.94802829468879
  C   1.58890733219601      0.98444831784515      0.46779561828746
  C   2.62358049039323     -0.83902025570132     -1.35188168109592
  C   3.48603756103432      0.08541781518314     -0.77817608436944
  C   2.96366669170957      1.03718872863281      0.13933427782650
  C   1.17713812745136      2.01742292321309      1.37594983823595
  H   3.02420293452656     -1.56330187062178     -2.04989677499204
  C   3.85818813737855      1.99914298700859      0.69507170775399
  C   4.87452898234985      0.10506816078517     -1.10036269938173
  C   5.69835071099560      1.03114654009514     -0.54765039729382
  C   5.17644691305059      1.99105368049645      0.36090163290863
  H   3.47863932286811      2.73526620446120      1.39002439551335
  H   5.84140568796287      2.72634411964210      0.79472485954188
  H   5.25047257541416     -0.63446464527073     -1.79664104163333
  H   6.75170744230482      1.04533149858809     -0.79406197109905
  N   0.98709880616171      2.90464697979963      2.08018490010779
  C   -3.05940264384811      0.20229563098956      1.67897603981899
  H   -3.51538667799776      0.77792500884925      2.48214515806950
  H   -3.03991627618183     -0.84934484207327      1.96097087352928
  H   -3.64044838657154      0.34494554940661      0.76933185558767
  C   1.23143263872769     -1.80430757275710     -4.32958742837491
  H   1.94006422273798     -1.01458226959423     -4.08594789946141
  H   0.26963590658843     -1.37108700486143     -4.59472558077528
  H   1.61273622527060     -2.38337006728881     -5.16885235208765
