33
Coordinates from ORCA-job 855optt
  C   -1.46564573698591     -0.57056462723953     -0.77762180601782
  C   -1.02969844046972     -0.91126998665749     -2.07706451889972
  C   -0.62777489772658     -0.00088509902489      0.14036318095843
  C   0.25698643698651     -0.71818537018572     -2.44541799737033
  C   1.19665409115348     -0.14498577420581     -1.53698839752201
  C   0.75207622555730      0.27456258104148     -0.23079127425505
  H   -2.49437668757551     -0.77305392867424     -0.52705670823372
  H   -1.74107184288908     -1.33347554561109     -2.77484237495295
  S   -1.20314634462388      0.36203203217221      1.76884757546124
  H   0.58804946256838     -0.97132725214867     -3.44068685891470
  C   1.69037502668585      0.92703350699123      0.59065328566659
  C   2.54335294085572      0.01301984842529     -1.91844950775475
  C   3.47479888493746      0.63090992665094     -1.06941215502674
  C   3.03291239569948      1.11859259479804      0.19712856698597
  C   1.37678503037827      1.48961811407680      1.87436837416413
  S   3.08747545648173     -0.57290221150759     -3.51112089426292
  C   3.97363773542542      1.77842294497686      1.04452747825446
  C   4.85069752458637      0.79931891987008     -1.41877082743553
  C   5.71641598759958      1.42450857613208     -0.58101711993864
  C   5.26950549745664      1.92669140675659      0.66770093995976
  H   3.64166906423768      2.15799544070607      2.00030806826410
  H   5.96729687002680      2.42727405201850      1.32593975178292
  H   5.18876540668801      0.42053122868515     -2.37121555357280
  H   6.75376900009918      1.54209459749454     -0.86558734542046
  N   1.26387471526377      1.99585310791740      2.89901386361501
  C   -2.87294168546162     -0.29742236452135      1.75754193432179
  H   -3.23512986911327     -0.13492396421101      2.77090229550273
  H   -2.88170793263867     -1.36491051127040      1.54239253909410
  H   -3.51696221068573      0.23946280813125      1.06308715416189
  C   3.10869108617239     -2.35167064726750     -3.16862570785629
  H   3.81577135929859     -2.57186150821293     -2.37171421652162
  H   3.43110266056576     -2.84054244853447     -4.08612752006525
  H   2.11574278944553     -2.70550044757181     -2.89696422417179
