33
Coordinates from ORCA-job 858optt
  C   -1.37288773875275     -0.68090902545207     -0.46226886139055
  C   -0.95547669701820     -1.36305060724450     -1.62885388290952
  C   -0.51683598692422      0.06876932515256      0.30076791307378
  C   0.33583787642409     -1.29560019285083     -2.02689750612007
  C   1.27383247598437     -0.52867801066018     -1.28046049552090
  C   0.87174397693408      0.18597046741825     -0.10197425892291
  H   -2.40953785362550     -0.77222610218428     -0.17965145131592
  H   -1.68051909108604     -1.93903015471467     -2.18841201970904
  S   -1.07974369511415      0.87292492719212      1.76623767795831
  H   0.68273384678501     -1.81496506911906     -2.91091226989186
  C   1.86583960815759      0.93932358187266      0.56264403664345
  C   2.59787426002220     -0.48155974954144     -1.71258128449634
  C   3.56944431076541      0.24442453603837     -1.04854755149421
  C   3.20685009680503      0.98147125778758      0.11460557273993
  C   1.62597372736085      1.73806796096331      1.73004736846929
  H   2.86989787028380     -1.03585435740859     -2.60424476003880
  C   4.21311551337261      1.73667995426846      0.78401954889126
  C   4.92458095668726      0.28078535125531     -1.49966183017642
  C   5.85736981060024      1.00381794904405     -0.84171296456897
  C   5.49853798834795      1.75128602972628      0.32599602534860
  H   3.93333133654485      2.29500983203023      1.66394484895353
  S   6.80992867030886      2.63955437115984      1.06789637171749
  H   5.18866630964127     -0.28477334131588     -2.38486590784344
  H   6.88331740465766      1.02957902780894     -1.18756091407195
  N   1.59160004000061      2.41981959642123      2.65446820347638
  C   -2.79482462714535      0.35403362400355      1.87159661560285
  H   -3.16203199746833      0.80855448572480      2.78973188452315
  H   -2.88228530984033     -0.72849160179305      1.95136259593878
  H   -3.38341327789814      0.72523995215916      1.03412555540174
  C   6.00026478879293      3.45588819223947      2.44667749460668
  H   6.77354971272462      4.03697126262610      2.94429804933175
  H   5.59064557136481      2.72954414786370      3.14667604589456
  H   5.21563012230679      4.12519237952857      2.09774014989936
