33
Coordinates from ORCA-job 860optt
  C   -1.63326379031566     -0.37847055277177      0.16919172437696
  C   -1.31749530539669     -1.24544957261224     -0.91769094234717
  C   -0.65011054493949      0.38619682168782      0.73928238736926
  C   -0.04653769176491     -1.31301916381836     -1.39210714278778
  C   0.99773974499466     -0.53111271886043     -0.82654418925986
  C   0.68359564953388      0.33423711065826      0.26458136381769
  S   -3.24987106539921     -0.23398240272362      0.83999830167541
  H   -2.08668908821803     -1.85389598555558     -1.36981968225313
  H   -0.88550890585169      1.04731344168869      1.56542744773610
  H   0.19083946729853     -1.97217384512827     -2.21849986844700
  C   1.71959392506522      1.10754332268411      0.82506970184457
  C   2.30437177472416     -0.58703105987632     -1.30788147694800
  C   3.32170509147675      0.17957081251398     -0.75650237824683
  C   3.03456589403968      1.05358446851424      0.33679490221530
  C   1.42631250677209      1.97639729484435      1.92261831386793
  H   2.53165937294887     -1.24832672202057     -2.13728979655792
  C   4.08471963853958      1.83785985123801      0.89350477918009
  C   4.66094901919099      0.12566663908344     -1.25082471314375
  C   5.63870320789120      0.88218902279857     -0.70347808353024
  C   5.35122747061652      1.76063929127654      0.39201905110472
  H   3.84544740433488      2.49224440889510      1.71977183583741
  S   6.72108477334407      2.67317069267181      0.98271567081485
  H   4.87896390994612     -0.53745122496620     -2.07916589555140
  H   6.65117340255741      0.83618388166487     -1.08493335803999
  N   1.20392523116636      2.67541073293674      2.80739877646536
  C   -4.23959183689825     -1.32007930205466     -0.19670428459734
  C   6.00116148195499      3.65170937983229      2.30463725940657
  H   -5.25540591432079     -1.22855628787997      0.18257718947750
  H   -3.92393196010567     -2.35776180358282     -0.10731677860172
  H   -4.22295347180297     -1.00218619769433     -1.23744686454026
  H   6.81375366423671      4.25202933866128      2.70775346978152
  H   5.60183431747133      3.01370069820380      3.09120049878751
  H   5.22359262690928      4.31088962969123      1.92224278109362
