21
Coordinates from ORCA-job 86optt
  C   -3.97881124319658      0.51362915643076      0.53216311598191
  C   -3.98537198724374     -0.88772644101288      0.43170701318259
  C   -2.84721197966175      1.21663214889918      0.10421278698932
  C   -1.73639746341929      0.56065188808602     -0.42187725471488
  C   -1.75250520588008     -0.81912638688685     -0.50325531195831
  C   -2.86085526659393     -1.53683768824024     -0.08046537264666
  H   -0.88105134981445      1.13505542096465     -0.74843101013272
  H   -0.89568864324098     -1.34693304943696     -0.90017483199617
  S   -5.36645457034066      1.36840000582836      1.22616605530478
  C   -2.81331241468532      2.65122715725369      0.18812744943482
  S   -5.43645424742927     -1.73626688434858      0.95376868383199
  H   -2.84210646577805     -2.61341073191070     -0.16072764505451
  N   -2.76176137527079      3.79728649388263      0.21552154724592
  C   -6.03256194999432      2.13821136698375     -0.27180264167715
  H   -5.32695612838663      2.85466585459185     -0.68651856094008
  H   -6.93419030295775      2.66353636271619      0.03753677515692
  H   -6.29062646932165      1.37463008701647     -1.00214133247111
  C   -5.01930843537039     -3.44965387703909      0.59875673970102
  H   -4.82950783129156     -3.60602350494419     -0.46200454116133
  H   -5.90029108307863     -4.02021579758371      0.88620755939262
  H   -4.17231558704405     -3.78981158125032      1.19236077653100
