33
Coordinates from ORCA-job 872optt
  C   -2.02265293072784     -0.55533889023422      0.05873078031112
  C   -1.69328749498133     -1.29859368356463     -1.10578026937392
  C   -1.08056746331193      0.17558610325233      0.71394547206658
  C   -0.42089658825514     -1.28680634925102     -1.58057950921426
  C   0.59445606950427     -0.53453959253846     -0.92265065671218
  C   0.26451397685859      0.21163245218957      0.24460613299387
  H   -3.03947162856380     -0.57211877536762      0.42874803590805
  H   -2.46063001307065     -1.87143163245461     -1.60940411165611
  H   -1.34281730466233      0.73776447686035      1.60003741848438
  C   1.27829645574240      0.95616323002842      0.89084301075478
  C   1.90287663346288     -0.51500933629468     -1.39999529401660
  C   2.89911024275977      0.21217230329732     -0.76792549851319
  C   2.59516799475343      0.97272156837268      0.40527392856741
  C   0.86043859761931      1.67941123221483      2.06015270280707
  C   3.66494589370200      1.71447220215493      1.02373027982053
  C   4.24205415822191      0.20560536118356     -1.28793057986171
  C   5.21708145090982      0.91484578065886     -0.66663432229279
  C   4.91913239986676      1.67474514247405      0.50028319869333
  O   3.31622056158051      2.41788978695430      2.12003446991413
  H   5.72063853264012      2.22853580440161      0.96578952615683
  H   6.23045398565628      0.92197837082251     -1.03867413813567
  N   0.39133379917032      2.20288472068751      2.96830094537863
  H   -0.15080953399888     -1.84698004116072     -2.46735706037496
  H   2.15274955973578     -1.08232704885370     -2.28640813462291
  O   4.41308919883180     -0.54512999219475     -2.40426301711610
  C   4.31343147929706      3.14737797111628      2.79468342484514
  H   5.10725255904912      2.48585542902631      3.15275855406756
  H   3.81975169777343      3.61794148843776      3.64020860564117
  H   4.74442288833510      3.91486657955630      2.14584145897086
  C   5.70739591427493     -0.58745528729252     -2.96007398288919
  H   5.64390540753872     -1.22740998152059     -3.83567199591084
  H   6.42478020523134     -1.00870823770484     -2.25054332139688
  H   6.03777329505597      0.41082884474281     -3.25966605329413
