33
Coordinates from ORCA-job 877optt
  C   -1.95071221757820     -0.74441803093052     -0.31062226343383
  C   -1.47275114137076     -1.41104378908475     -1.46711979366762
  C   -1.10960400161365     -0.00389959926899      0.47208379742952
  C   -0.17260905903539     -1.31315777516780     -1.82837065540398
  C   0.73867187809484     -0.55641058438801     -1.03258036507391
  C   0.29856521447331      0.09634685395759      0.16069126486795
  H   -2.99943734319490     -0.81116769542087     -0.06410265571695
  H   -2.16818219386995     -1.98677770890782     -2.06357909691263
  O   -1.51992281564977      0.69537431705545      1.54044643665757
  C   1.24364589075322      0.79112557896407      0.95204381764886
  C   2.07224227057821     -0.46379089114901     -1.40478059591245
  C   2.99921448853391      0.26891373369059     -0.67731062290611
  C   2.58410701362534      0.92966142393567      0.52049523948343
  C   0.86602287455778      1.25978179115094      2.26326381561404
  C   3.58688406138931      1.70873426261682      1.21145965096575
  C   4.35452106841454      0.34160613601271     -1.11797353863663
  C   5.26290758398372      1.05264388013587     -0.41095757196222
  C   4.87668555726251      1.75091274564280      0.76081220297617
  O   3.15604909295865      2.39409798865144      2.28065630046685
  H   5.61410181873122      2.33728665916777      1.28749038397315
  H   6.29283154780813      1.10978676669059     -0.73787278965702
  N   0.58622857696844      1.56184382719359      3.33426290749360
  H   0.20382088203528     -1.80059231516617     -2.71808632173360
  H   2.40079724037460     -0.97862693991378     -2.30049270680511
  H   4.62963803404080     -0.18206643369672     -2.02405394818694
  C   4.07863083103342      3.14201658223721      3.03763772023905
  H   4.87432926311024      2.50239239980740      3.42797614880833
  H   3.51043149887451      3.56363338512818      3.86185453023344
  H   4.51611768626548      3.94596713836655      2.43961959150309
  C   -2.86632013523010      0.60796877585198      1.94487031494755
  H   -3.53391988391180      1.00125368796634      1.17350413015874
  H   -2.94443867655496      1.21370947996858      2.84316153024651
  H   -3.13985690585803     -0.42544565109776      2.17265314229537
