33
Coordinates from ORCA-job 879optt
  C   -1.76449833691212     -0.71018398644049     -0.09914748990487
  C   -1.43629998120255     -1.37866498221490     -1.31736380039347
  C   -0.82405166852542      0.00721480170772      0.58437506329932
  C   -0.17874314716342     -1.31162151481156     -1.81008033653837
  C   0.84062248120976     -0.57835942552349     -1.13090721001595
  C   0.50496133424718      0.09090492087991      0.08365750048289
  O   -3.04794822405524     -0.85974842290453      0.28470614102951
  H   -2.22037648023338     -1.93017236353584     -1.81816256878681
  H   -1.06245070297746      0.51740545113473      1.50640438375636
  C   1.51172565361853      0.81537114805403      0.74661274234043
  C   2.14027293773995     -0.50269044243234     -1.61970609449385
  C   3.13586690510867      0.20981355390430     -0.96021773902712
  C   2.82705930447157      0.89109797315720      0.25483756532408
  C   1.18774356156500      1.49462774685372      1.96236747194445
  C   3.84750548818082      1.61908061568340      0.92751519763801
  C   4.46971135155100      0.28346135197880     -1.46386468231256
  C   5.42518252198206      0.98173842011214     -0.80940616599317
  C   5.10963239792977      1.66049268753740      0.40653625440582
  H   3.59833959766895      2.12891129338438      1.84691548277595
  O   6.14926699428387      2.31715702812241      0.95847528743730
  H   6.44038466735680      1.04861042097917     -1.17634810973013
  N   0.92617364105301      2.04054242590194      2.93974067214516
  H   0.07675640960168     -1.81742396346947     -2.73322806233618
  H   2.38531175633914     -1.01546921917976     -2.54395076274282
  H   4.70315894054055     -0.23360507796721     -2.38661296823625
  C   5.92024180276240      3.00718888472861      2.17072564345931
  C   -3.44797015680693     -0.23947403380175      1.49025681468308
  H   -4.49803474948992     -0.48291749630962      1.62257157636272
  H   -3.32564706390281      0.84459097020977      1.43049692123672
  H   -2.87119221695536     -0.62317671732695      2.33523785493740
  H   6.86840163226794      3.45973211924375      2.44572320139133
  H   5.59902350185362      2.31846981127868      2.95580124655533
  H   5.16466984689227      3.78544602106583      2.03990896930636
