33
Coordinates from ORCA-job 880optt
  C   -1.84986637215575     -0.37869720587311      0.11286552151494
  C   -1.62122770423287     -1.09763562646625     -1.09810985873241
  C   -0.84157305771284      0.28056974458554      0.73107572166440
  C   -0.37741577161145     -1.13080552324911     -1.65382676281860
  C   0.70420151746844     -0.44522486693772     -1.02392018860921
  C   0.47670930030280      0.27244461105167      0.18592350529001
  H   -2.85396049060360     -0.38066280965989      0.51591871653319
  O   -2.71984090311457     -1.70634337016118     -1.59923423237317
  H   -1.02613404872254      0.82284962177629      1.64987435234861
  C   1.55000268162829      0.94204254763982      0.79601862902128
  C   1.98929540714384     -0.45843250100921     -1.56484881119446
  C   3.05115281740924      0.20404334235638     -0.96160037203293
  C   2.84393793373208      0.92772564420366      0.25131275624955
  C   1.32242350297352      1.66085381208705      2.01308971967712
  C   3.93680218073311      1.60404050100485      0.86474374931330
  C   4.36539233099085      0.18563097216473     -1.52324404073679
  C   5.38869840925204      0.83505046668012     -0.92490780669076
  C   5.17308874755443      1.55666057929888      0.28936875533236
  H   3.75960334335680      2.14600549453728      1.78248461430346
  O   6.27743965195405      2.15675780735216      0.77836147372657
  H   6.38870942271810      0.83095844302866     -1.33734103218783
  N   1.15324664979941      2.24195770985461      2.99001126968073
  H   -0.17730791659995     -1.66745513234975     -2.57037765063308
  H   2.16760606093427     -1.00292369775036     -2.48597208550858
  H   4.52627715593842     -0.36209812666586     -2.44367303718127
  C   6.14402736294637      2.89075038340862      1.97881118490663
  C   -2.56787298390541     -2.43365768405723     -2.79802470543936
  H   7.12914121923173      3.28962805762345      2.20207351727391
  H   5.81396660919806      2.24472345647260      2.79598609708105
  H   5.43304756069329      3.71147542699343      1.85666232312540
  H   -3.54656712135373     -2.84059816355052     -3.03541345424510
  H   -1.85222718930270     -3.25051231314191     -2.67161697855848
  H   -2.23471630664382     -1.78254160124773     -3.61075089010053
