33
Coordinates from ORCA-job 883optt
  C   -1.92753979731419     -0.44294865804458      0.01701933164160
  C   -1.66233034712705     -1.29478523859897     -1.08795219446781
  C   -0.93132083480300      0.28336051294134      0.58985926572556
  C   -0.40438295373662     -1.39177303368054     -1.59363145422939
  C   0.66335959875743     -0.63803039680741     -1.02539467825671
  C   0.39846095820137      0.20772678445407      0.08559627786513
  H   -2.93447285243062     -0.37770906679357      0.40820407106883
  H   -2.46836414115996     -1.87185310618121     -1.52126024798123
  H   -1.13153119902504      0.92819303569614      1.43599913446759
  C   1.46114929710968      0.93664341854667      0.63945824151792
  C   1.96536439364429     -0.72162821923726     -1.54929794185022
  C   3.03463199951356     -0.00275104973807     -0.99166829755894
  C   2.76700735625416      0.84753158051471      0.13399904398549
  C   1.20055756397495      1.79170178867040      1.75663909762177
  C   3.82673951681451      1.59025887532342      0.73037413589009
  C   4.40082379318528     -0.07678871609525     -1.46573906459364
  C   5.38451455995410      0.65114929301387     -0.85892710040983
  C   5.08627393532617      1.48895120361231      0.24363411745095
  H   3.60657875263026      2.22822520626159      1.57517396861666
  H   5.88985485409030      2.05225397714082      0.69977213864905
  H   6.40355791138922      0.59623549225955     -1.20830975653729
  N   0.98150229610922      2.47433502961817      2.65461551677526
  H   -0.18610034823782     -2.04937381362684     -2.42296127095207
  O   2.13767646047537     -1.55788727169645     -2.60695773680117
  O   4.63351396128845     -0.89223530474712     -2.51540039806975
  C   5.95970403194349     -1.01839091056607     -2.97873359807703
  C   2.04979409588120     -0.91948790943580     -3.87391327130052
  H   1.05032904817891     -0.49891121765170     -4.01809270856836
  H   2.23874143078442     -1.68620160514834     -4.62132664737627
  H   2.79801815272725     -0.13062596544742     -3.96218705693881
  H   6.61464162267027     -1.40396082740291     -2.19349321745876
  H   6.34626823048668     -0.06060245350423     -3.33705532456345
  H   5.92255865244369     -1.72709143364934     -3.80131237528460
