33
Coordinates from ORCA-job 886optt
  C   -1.79206079328019     -0.35954029279741     -0.10727312789050
  C   -1.46660439202913     -1.09186878655717     -1.28288610666982
  C   -0.82924042166331      0.30496089213469      0.58476712961428
  C   -0.18558690711556     -1.13706225455683     -1.73017769923981
  C   0.85744702787123     -0.45440801405071     -1.03500118277788
  C   0.52533247029154      0.28040169061448      0.14466620093340
  H   -2.81791796364230     -0.33423407530133      0.23584645080030
  H   -2.24925593417067     -1.61307978938856     -1.81835170781908
  H   -1.07694414427236      0.86211835991900      1.47972182967978
  C   1.55656672619504      0.95060272020921      0.82160696999449
  C   2.17639849354326     -0.48901101372181     -1.47840240678693
  C   3.20315370222794      0.17444568117111     -0.80670133654200
  C   2.88358854347792      0.91298732850804      0.37262654797296
  C   1.24486263990851      1.69604057501848      2.00504473051186
  C   3.94392341287747      1.58829168667006      1.04120429838621
  C   4.54525472532274      0.13632992219732     -1.27199810776652
  C   5.55902914663106      0.78493676794892     -0.60281521261222
  C   5.21586105550964      1.52986389551789      0.57879227750922
  H   3.72063199716747      2.15804701136369      1.93467972314323
  H   5.98673288375858      2.05944261670078      1.11846673164777
  N   6.87120087402869      0.73474858820672     -1.01797061297027
  N   0.99718771430078      2.29556055576147      2.95326621441012
  H   0.07058895916988     -1.69200862300709     -2.62453730836018
  H   2.41184217331247     -1.05075962230144     -2.37592480789418
  H   4.74034021697181     -0.42436148348202     -2.17427341446375
  C   7.16120253520270      0.10705265682313     -2.28670496061785
  C   7.83722766541952      1.67147483287612     -0.47887546235921
  H   7.98620235962769      1.51535997175848      0.59054477675843
  H   7.54416356000415      2.71510527482209     -0.63965528768948
  H   8.79350254993501      1.50638512034063     -0.96782977616193
  H   6.84483790639111     -0.93793499388650     -2.27787743510089
  H   8.23345059834937      0.12965504201435     -2.46129971643371
  H   6.65765061867779      0.60887775847421     -3.12283821120587
