41
Coordinates from ORCA-job 897optt
  C   -1.70470757356429     -0.65127703803260     -0.35962354479123
  C   -1.28496949267560     -1.30056188218281     -1.57204970843091
  C   -0.76325154021086      0.04128761731343      0.37868898098734
  C   0.00158363309562     -1.22651883088670     -1.98921693529377
  C   0.98674865729774     -0.51156224175220     -1.25232061673067
  C   0.58379248760274      0.13372673526792     -0.04266332228380
  N   -3.01742882363013     -0.72787539183047      0.03042488923894
  H   -1.99914012344684     -1.85542919627242     -2.16142754041233
  H   -1.03565648326709      0.53084416328612      1.30157325003376
  C   1.55983221026082      0.83877153707576      0.69046592937072
  C   2.30971489127192     -0.43071295662086     -1.67096330531786
  C   3.26949785816583      0.26429318051401     -0.94453289017762
  C   2.90332461724282      0.92039238129132      0.27100159557302
  C   1.17515879955603      1.49101338384819      1.90070869257024
  C   3.88618569823159      1.62590402815976      1.00339107892077
  C   4.62436983096343      0.35312344212978     -1.37054546409236
  C   5.55276694842041      1.03127043221666     -0.65426435088405
  C   5.19925520343532      1.68785098806263      0.57532292361596
  H   3.57802079994773      2.11794503622088      1.91364195646946
  N   6.16338722538412      2.34869946203163      1.29154411775897
  H   6.56928836516524      1.07443230273430     -1.01513800223514
  N   0.86543834745930      2.01682320820386      2.87601023891685
  H   0.30144356388304     -1.72139856082932     -2.90550396249029
  H   2.60183218614462     -0.92474241905039     -2.59222146179566
  H   4.90761349395978     -0.13770294245796     -2.29426573387071
  C   5.77602243341069      3.07026030199157      2.48358458493196
  H   5.06431954507904      3.87406686256566      2.26329270457330
  H   6.65993354852428      3.50375208771753      2.94302455511534
  H   5.31100241098444      2.39812915773113      3.20823545163765
  C   7.47614306860499      2.57423889089829      0.72431850948940
  H   8.06732686363009      3.15323216292232      1.42825940752384
  H   7.42947488786868      3.12866576035272     -0.21895229597944
  H   8.00204908654368      1.63380326904060      0.54495518697479
  C   -3.39828202341111     -0.16237937157875      1.30623691650804
  C   -3.92826771421939     -1.63641192724267     -0.63419032937697
  H   -3.17301978982022      0.90567940461509      1.33808992468881
  H   -2.87505409696234     -0.64333172255818      2.14075627143992
  H   -4.46840497256622     -0.28585155468280      1.44740255261468
  H   -4.06611077918606     -1.36651667430386     -1.68326651936020
  H   -4.89866641827290     -1.57622502148810     -0.14935587466371
  H   -3.58615683090107     -2.67594806442109     -0.58716786076698
