22
Coordinates from ORCA-job 8optt
  C   -3.52380746756644     -0.58747417169617      0.49593478409980
  C   -3.40258810058216     -1.74649665983746     -0.26459375618342
  C   -2.50955675154637      0.36582124682771      0.49885270814456
  C   -1.35387705904619      0.17843038210692     -0.25891414280847
  C   -1.22960178090676     -0.97280177914987     -1.01570135457852
  C   -2.24449397446094     -1.92216813803783     -1.01657603891016
  H   -0.57504854086750      0.92826893264934     -0.24630945965479
  H   -0.33927286068861     -1.13318493469200     -1.60900937449946
  H   -4.40900937554901     -0.41343981998218      1.09513598303999
  C   -2.65703590626556      1.55558108818388      1.29087885211204
  C   -4.50331235648545     -2.78468528028721     -0.26883166980770
  H   -2.13532454079499     -2.81977928482233     -1.61395020414899
  N   -2.77345530515914      2.50452668040266      1.92563772156718
  C   -4.70776518198178     -3.38151868549727      1.12464301481676
  H   -3.78303564405084     -3.81114904938452      1.51054922630703
  H   -5.46752083710889     -4.16372573574166      1.09574491115289
  H   -5.04293623516331     -2.61617516403825      1.82751835633282
  C   -5.81186953092715     -2.20545282741239     -0.80898512730010
  H   -4.18485031820928     -3.58740315626261     -0.93900145615910
  H   -6.57879183679305     -2.97958711483261     -0.85812888371288
  H   -5.67737815293434     -1.78781236102750     -1.80702875315124
  H   -6.18153824291212     -1.41079416746856     -0.15788533665823
