29
Coordinates from ORCA-job 903optt
  C   -1.83248469357434     -0.05602537493961     -0.00763079834368
  C   -1.57536397532978     -0.76737771905141     -1.20559410847318
  C   -0.81785922098932      0.55510699174525      0.66598155695206
  C   -0.31998188507958     -0.86688428863903     -1.72455515622138
  C   0.77413280677967     -0.23222866910205     -1.03724864168403
  C   0.53051815800480      0.48944487585277      0.17531363957303
  H   -2.40413305902191     -1.24150764378464     -1.71578438057145
  C   1.58397523464415      1.10324619276633      0.84503797916971
  C   2.07773171413481     -0.29829134212451     -1.51977215358106
  C   3.13839737806120      0.31495860783007     -0.85594104945365
  C   2.88390430010322      1.02927192634270      0.35321390636988
  C   3.99856317442797      1.64706594991690      1.01436198658553
  C   4.47124916632665      0.24528217046101     -1.35721420849032
  C   5.49880655964873      0.84591608978247     -0.70209271952632
  C   5.26064879600517      1.55663403725738      0.50161202598137
  H   6.50655582248032      0.78823541433633     -1.08996529433211
  C   -0.07166806273087     -1.62504863801180     -2.99449914879446
  H   -2.84165438613831      0.00389729949862      0.37706543813811
  H   6.08159451832859      2.03199414450799      1.02110615110391
  H   2.28775326059431     -0.83688854086800     -2.43486615935562
  H   4.64725501271386     -0.29977630846059     -2.27668286057831
  H   1.38896257560999      1.64652594303659      1.76316989554499
  C   3.78217015980104      2.36971384046464      2.23433612693550
  N   3.60602858702163      2.94789720357022      3.21000401803281
  C   -1.09854787309568      1.27122705541236      1.87567220782381
  N   -1.32069004593196      1.84539332954489      2.84447451705885
  H   -1.00070734997043     -2.03858305981209     -3.38088312666541
  H   0.62706084159484     -2.44801645460213     -2.83080409349367
  H   0.35906248558123     -0.97761303293069     -3.76108554970488
