28
Coordinates from ORCA-job 917optt
  C   -1.85136495741273     -0.15742389514033     -0.16328936174234
  C   -1.53550846869444     -0.85912989929633     -1.35706150440274
  C   -0.87185343855771      0.47776971537208      0.55877686954464
  C   -0.25497386158219     -0.90053202693643     -1.78731903526392
  C   0.80345058824632     -0.25675025717754     -1.07675385973669
  C   0.50748206846166      0.45465772903210      0.12907159710668
  H   -2.32915591137753     -1.35174327465008     -1.90603640724504
  C   1.56682127425688      1.07919674451588      0.81239269895288
  C   2.09914414302292     -0.32654043725355     -1.56090156965273
  C   3.14717394169220      0.29286369435393     -0.88814325056496
  C   2.88753634627651      1.00763266480498      0.31887023150116
  C   4.00650873410759      1.62718867446957      0.97661472311070
  C   4.47502302824220      0.21809930368605     -1.39709640540716
  C   5.50732582635227      0.81743606683532     -0.75184525571838
  C   5.26653657485179      1.52700331204195      0.44653329628811
  H   6.51421311290448      0.75920211467852     -1.14189837698902
  H   -0.00354648775438     -1.43240885910971     -2.69652505948985
  O   -3.11815109006880     -0.09851982965369      0.28911037345120
  H   6.08732359790184      2.00417051091819      0.96443904619413
  H   2.29859808010290     -0.86961616012974     -2.47632207083684
  H   4.63789297632470     -0.33144432880442     -2.31603892295348
  O   1.42790665444201      1.77382204917860      1.95062697810023
  C   3.92378341381396      2.37843042772975      2.20076042794238
  N   4.00446063017113      2.99544927937245      3.16476010034536
  C   -1.29822259457447      1.15014678829486      1.74418543741143
  N   -1.60376874903410      1.70244819107170      2.70527143533425
  H   0.52673926771212      1.82046535480865      2.29414204946969
  H   -3.71202469982716     -0.57832365301276     -0.29686418474970
