28
Coordinates from ORCA-job 918optt
  C   -1.84911225234353     -0.14714090001026     -0.14748195368089
  C   -1.54030061526168     -0.84879901983387     -1.33986110905513
  C   -0.86590601220877      0.48080134152000      0.55851441692596
  C   -0.25872726514666     -0.89493972277484     -1.78326183060992
  C   0.79650366120170     -0.25061765811638     -1.07280197704298
  C   0.51236989600690      0.46457279178556      0.13742075656019
  O   -2.59284623479791     -1.43564492968203     -1.95757579550210
  C   1.57234977246237      1.08993620123854      0.82314310844041
  C   2.09518440215877     -0.31645984805546     -1.55266332379522
  C   3.14231772049235      0.30205696497646     -0.87788686657657
  C   2.89248062707637      1.01767042579944      0.33048330152736
  C   4.01349641695950      1.63363931258225      0.98788770301835
  C   4.47105079768368      0.22542337068794     -1.38784875778466
  C   5.50528456114077      0.82091637777938     -0.74306723529397
  C   5.27223413307979      1.53097112123186      0.45739187410850
  H   6.51101892661611      0.75909895263879     -1.13595701301649
  H   -0.01123764826037     -1.42799305237816     -2.69459715495351
  H   -2.87604080728321     -0.11993651849352      0.19016398637405
  H   6.09604563524943      2.00431768188959      0.97360370906837
  H   2.29938078187948     -0.85746882198785     -2.46798328016047
  H   4.63218146136149     -0.32322631375569     -2.30751742121031
  O   1.43334272761556      1.78301702820925      1.96025060769814
  C   3.93130745730198      2.38330329315449      2.21297889543795
  N   4.00712937717591      2.99853568365134      3.17849625387522
  C   -1.28923951778332      1.15818837897298      1.75012822108621
  N   -1.61075999024857      1.70544007640495      2.70808295154082
  H   0.53425528568294      1.83223043541475      2.30688380228824
  H   -2.30329329781115     -1.88703265284950     -2.75727586926756
