28
Coordinates from ORCA-job 919optt
  C   -1.86627631125605     -0.13752367256450     -0.13014953534406
  C   -1.57658408209891     -0.83838576235926     -1.31649300755166
  C   -0.88596597977015      0.49272136363107      0.58555677486608
  C   -0.29176435216225     -0.89160918999947     -1.76498068849843
  C   0.77995857568151     -0.24762357609219     -1.05707385281055
  C   0.48946699719008      0.46493838327545      0.15110462383852
  H   -2.37199560396881     -1.32926276890618     -1.86300629050597
  C   1.55544017600820      1.08628417874464      0.82947937966515
  C   2.07063913098743     -0.32228741860249     -1.54888302278589
  C   3.12112363641064      0.29670468532109     -0.87658235899188
  C   2.87370169738963      1.01201400722285      0.33112150584606
  C   3.99742380708901      1.62823000283426      0.98353893133041
  C   4.44575040464738      0.21789484293534     -1.39356830345863
  C   5.48377438357995      0.81387188584941     -0.75413793898830
  C   5.25373861650198      1.52404859177807      0.44600774198975
  H   6.48804197513147      0.75241698160679     -1.15049570572968
  O   0.06592673792895     -1.54305826048845     -2.89047243336499
  H   -2.88644896920508     -0.09480350269997      0.22635021420503
  H   6.07964378273898      1.99810280697897      0.95858060155263
  H   2.26531415041058     -0.86407687277540     -2.46289193952199
  H   4.60043737051084     -0.33203182884915     -2.31349155091532
  O   1.42284297570486      1.77968339201669      1.96782904024394
  C   3.92213098507716      2.37917026412489      2.20818847356054
  N   4.00596294759609      2.99589788508705      3.17205802643757
  C   -1.30150088985158      1.17015344455745      1.77410310103375
  N   -1.61895207001611      1.72025223407942      2.73307843364323
  H   0.52350398285858      1.83232278571063      2.31486883532154
  H   -0.70733407511444     -1.94207488241700     -3.30314905506683
