28
Coordinates from ORCA-job 922optt
  C   -1.82551924148450     -0.09728160169621     -0.12147082117023
  C   -1.52180809177616     -0.81089876834807     -1.32740009348912
  C   -0.79743136491803      0.51495117413353      0.57094363557594
  C   -0.25466913671546     -0.88390767821905     -1.78710228969920
  C   0.83171195842853     -0.25585230195153     -1.09934675920466
  C   0.55780366982839      0.46296804235114      0.10546074611113
  H   -2.33401499771883     -1.28591863569691     -1.86347683287816
  C   1.60463534727355      1.07843763060678      0.78208048108360
  C   2.13087523986092     -0.32861920740040     -1.57613543280589
  C   3.18764831880700      0.28689591585953     -0.90435347235709
  C   2.91107649688031      1.00339508563628      0.29959891205890
  C   4.01751968861263      1.62566802105563      0.96855672105822
  C   4.52370405544661      0.21774324173111     -1.38906897535026
  C   5.54472405407739      0.82317602433449     -0.72474916802928
  C   5.28760480540973      1.53649090487651      0.47081689683680
  H   6.55703320944007      0.76616295685497     -1.10024133453496
  H   -0.03924456132345     -1.42670254174944     -2.69959487633455
  N   -3.11894762934953     -0.02179642883888      0.28757853642176
  H   6.09936712465761      2.01744982972000      0.99977666874036
  H   2.33156954168553     -0.87469808613571     -2.49129087307902
  H   4.71083582118549     -0.33057155213995     -2.30458426303502
  H   1.40515320586483      1.62490340875477      1.69718198708676
  C   3.78768878985967      2.35410591222775      2.18253604559000
  N   3.60039450258525      2.93635414249905      3.15392934640540
  C   -1.13226512124596      1.20080571129418      1.77366434685857
  N   -1.47886560040308      1.72747359539799      2.73560666121039
  H   -3.80535211128363     -0.62425609813817     -0.12880027594350
  H   -3.33457797368491      0.36901130298056      1.19087448287314
