28
Coordinates from ORCA-job 923optt
  C   -1.79488849354184     -0.13784355893826     -0.06799293516994
  C   -1.53566430632750     -0.85717226306017     -1.27325891794970
  C   -0.79226237449379      0.48977406265626      0.60436980647545
  C   -0.25541247147706     -0.91594241516665     -1.74743638315402
  C   0.81856362264670     -0.27988255974512     -1.06705831894656
  C   0.56506706988015      0.44819289327066      0.13773780321797
  N   -2.59111267905159     -1.51501451267153     -1.88016581296414
  C   1.60532554890839      1.07955288554041      0.80934748215451
  C   2.12565369112225     -0.33835381865562     -1.54564662243905
  C   3.17402412647796      0.29088874190671     -0.88130994039556
  C   2.90804103389160      1.01438057174643      0.32260060701801
  C   4.01319606924045      1.64962062639045      0.98265624755919
  C   4.51213268752337      0.23255268975282     -1.37325269614050
  C   5.52929033111348      0.84975778049653     -0.71803563883081
  C   5.27922477669277      1.56930485758500      0.47857729617341
  H   6.53941768640140      0.79892921114701     -1.10096835416584
  H   -0.04007958742064     -1.45956877332969     -2.66015496467347
  H   -2.80629088020801     -0.09621455905012      0.31696853061740
  H   6.09237647953401      2.05804558174093      0.99762812611057
  H   2.33232334093467     -0.88604962491120     -2.45800436947613
  H   4.69959880069526     -0.31835211248632     -2.28694583623883
  H   1.40009568509722      1.62786096772190      1.72238850529746
  C   3.78178545232525      2.38121206236303      2.19472845052594
  N   3.59173736287676      2.96594249001695      3.16397937225499
  C   -1.10497410529733      1.20768521516266      1.80703654766216
  N   -1.35613706610410      1.78454749873735      2.76667815657764
  H   -2.45374706981559     -1.79004617241297     -2.83912849893208
  H   -3.51116473162425     -1.14638776580745     -1.70193764216808
