26
Coordinates from ORCA-job 926optt
  C   -1.84633281920935     -0.15808229762154     -0.15818733578503
  C   -1.53853576588924     -0.85901264450211     -1.34600124337939
  C   -0.88412364374441      0.48072624591145      0.57970077184231
  C   -0.25615727823017     -0.89242052775569     -1.77860754612476
  C   0.78399790029276     -0.24365503394025     -1.05111914566251
  C   0.50042163636947      0.45629031295210      0.16784576389154
  H   -2.32809503622030     -1.35182287020667     -1.89600614562598
  C   1.57769650823026      1.04948739292311      0.85244313469332
  C   2.08397698994917     -0.30197756306216     -1.52888708552705
  C   3.13628905977644      0.30840998558368     -0.86431796377695
  C   2.89592950061350      1.01454947172439      0.36038307361925
  C   4.04903348574643      1.62725316648016      0.97823943697496
  C   4.45133826626291      0.21549994712036     -1.40673773016923
  C   5.50629944629281      0.79427343517809     -0.78634161239881
  C   5.29235038113855      1.50838984307719      0.41415895427725
  H   6.50437725463474      0.72378985751526     -1.19580866559635
  H   0.01200815674383     -1.41296222030568     -2.68957808101150
  H   -2.87069848957589     -0.11074130222420      0.18572771026163
  H   6.12705857959732      1.98599971553289      0.90911013171420
  H   2.28334598817160     -0.84075463662452     -2.44743499921376
  H   4.57989297312124     -0.33296419841144     -2.33159545421009
  Cl  1.27681615792885      1.82172038823811      2.35794003302851
  C   4.04593799556490      2.41905248196857      2.18010164260673
  N   4.21355802532618      3.07319362744386      3.10814967658785
  C   -1.41270537667470      1.16107907239010      1.73259099179956
  N   -1.98910989621695      1.65146835061492      2.59549168718430
