26
Coordinates from ORCA-job 928optt
  C   -1.81634506520789     -0.09791291845138     -0.07466187039840
  C   -1.53150642321785     -0.80777066536744     -1.26957547256411
  C   -0.80638575725138      0.51882659223109      0.60171238614484
  C   -0.26999943394603     -0.88616827987216     -1.76041209070224
  C   0.80724569020969     -0.25173716375623     -1.07561436991537
  C   0.55046770862049      0.46731706640825      0.13278950254280
  Cl  -2.84409216482131     -1.57505261749014     -2.08788958122997
  C   1.59754971057708      1.08447530186719      0.80854526715042
  C   2.11004231871882     -0.31822448117584     -1.55979883504293
  C   3.16324215466385      0.29787959766099     -0.89065659669542
  C   2.89890067666798      1.01128417833197      0.31950076669540
  C   4.00889623970037      1.63097214304575      0.98740665958077
  C   4.50009094550016      0.23361758477564     -1.38446881374922
  C   5.52076954514776      0.83650239098981     -0.72218277260116
  C   5.27364047229668      1.54490440870449      0.48186749133906
  H   6.53095516152773      0.78278476266761     -1.10421508484905
  H   -0.07129476106763     -1.43066496410145     -2.67430925004384
  H   -2.83285816314888     -0.05168125613697      0.29002594840247
  H   6.09035626673305      2.02153485332814      1.00675743178099
  H   2.30892487404913     -0.86075318574916     -2.47679501293549
  H   4.68318293764634     -0.30938238841837     -2.30360517080185
  H   1.39847346853273      1.62740291356874      1.72595836656614
  C   3.78198693624157      2.35063915041492      2.20722257033241
  N   3.59384400350398      2.92553682543332      3.18253022915508
  C   -1.10818504208457      1.23432067911549      1.80788394983613
  N   -1.34332229959191      1.80811947197570      2.77323435200255
