26
Coordinates from ORCA-job 929optt
  C   -1.83699534241627     -0.08733452098475     -0.05466288758302
  C   -1.58315007922264     -0.80147116107853     -1.24967347876722
  C   -0.82193160141041      0.52525736876950      0.61870639878333
  C   -0.31825221512640     -0.88145619931412     -1.73715360746122
  C   0.78962494537827     -0.25800246004482     -1.07559099635465
  C   0.52856860526052      0.46269228272741      0.13508027963326
  H   -2.39562301109928     -1.28320366302050     -1.77446090428428
  C   1.57775714003841      1.07996172999772      0.80905452576005
  C   2.09248277892443     -0.32243690436408     -1.55610457067766
  C   3.14326259285796      0.29648979127375     -0.88453378075404
  C   2.87951539763231      1.00962853906914      0.32370258707555
  C   3.98850081841856      1.63082500146778      0.99171715977784
  C   4.47899133842589      0.23226513004424     -1.38029696584776
  C   5.49994906708543      0.83644402547546     -0.71917332708734
  C   5.25277756532794      1.54501832400823      0.48457947215484
  H   6.50992032426905      0.78356742211557     -1.10177901127630
  Cl  -0.04469683869699     -1.76199349713649     -3.19743670291284
  H   -2.84721237941119     -0.02815861569270      0.32644432229282
  H   6.06970294676493      2.02244578810345      1.00853904855273
  H   2.29945135324435     -0.86198216657340     -2.47023448887703
  H   4.66051712538340     -0.31133514713692     -2.29929920608483
  H   1.37561882641938      1.62263399002002      1.72586827249802
  C   3.76166757710901      2.35066692125897      2.21127135468945
  N   3.57402921194093      2.92584926963113      3.18650151970184
  C   -1.10712030889611      1.24266718586426      1.82650155533566
  N   -1.33277583820148      1.81776156551967      2.79369343171280
