34
Coordinates from ORCA-job 944optt
  C   -2.00542390182943      0.30619447265678     -0.38102624964924
  C   -1.64188784208035     -0.79424354888362     -1.19251554959904
  C   -1.06471789031770      1.09358306620338      0.22628255051099
  C   -0.33025919065863     -1.06340978154335     -1.39695960509480
  C   0.68745062098648     -0.26508743710178     -0.79599557291686
  C   0.34277574337288      0.82836171731313      0.06115456306515
  H   -2.41355420031881     -1.39880406269126     -1.64853069859307
  C   1.37288201266038      1.57006985689472      0.67003299992282
  C   2.02186291358234     -0.54463914325173     -1.05294873246449
  C   3.04352339377330      0.20869234537248     -0.49365603932566
  C   2.72499236018781      1.28430552216098      0.39647037736181
  C   3.84445440653681      1.99416139147151      0.96599600539219
  C   4.40167352844201     -0.10994021985027     -0.78724207401579
  C   5.42223489209672      0.58528792202985     -0.22901447882353
  C   5.13306383530316      1.64791712527621      0.65775567194733
  H   6.45156142047486      0.34038896945846     -0.45101356910975
  H   -0.02274825440086     -1.88998341857459     -2.02556027686524
  H   -3.05057090568890      0.54398146818570     -0.23563425479440
  H   5.94145061535311      2.20896465361174      1.10697241549056
  H   2.27209230715881     -1.37121571560811     -1.70747188491484
  H   4.59481021066377     -0.92943271154528     -1.46850973923838
  N   1.04731810434857      2.61337955421424      1.56053856800444
  C   3.71960927391711      3.11353750023857      1.85847374143312
  N   3.72200283907661      4.03122964923697      2.54872359756188
  C   -1.60604724503606      2.18150856053937      0.99395450667111
  N   -2.16176519063113      3.00017045043748      1.57637783710238
  C   0.54731869629529      2.45332822509848      2.83349017941000
  H   1.41835997482817      3.53822803213426      1.40581141991697
  O   0.42425590588447      3.35145436522167      3.61580210431028
  O   0.20733567294244      1.17647367304165      3.06532242336625
  C   -0.47130293167117      0.97369806759668      4.30498319889391
  H   -1.39154546186403      1.55658386642565      4.31976916245348
  H   0.16120043112041      1.27759599094308      5.13676818270905
  H   -0.68596614450849     -0.08953040671313      4.35266921988130
