34
Coordinates from ORCA-job 947optt
  C   -0.22786614105590      0.36590776813191      3.52271823628609
  C   -0.89744198631586      0.99899209027334      2.45308464110591
  C   1.06045205160070     -0.06353528957016      3.39767348942910
  C   -0.25871439798007      1.22342651901617      1.26767564951421
  C   1.12087308597275      0.83135815237215      1.10329632271802
  C   1.78131027828351      0.15101184832918      2.17603638329809
  C   3.10021661715935     -0.26611296732787      2.02401603704461
  C   1.84202721170424      1.10471192732285     -0.05493219196432
  C   3.16566556338622      0.69704379436693     -0.20882138871353
  C   3.80274275147392     -0.01522962165181      0.85005774312113
  C   5.16371185944975     -0.42946385465903      0.65655810520786
  C   3.89776595511605      0.98215026672170     -1.39841831749800
  C   5.18559747987287      0.57423472252423     -1.54167106591349
  C   5.82838064912358     -0.14318269086040     -0.50084605009756
  H   5.73294251547012      0.79203175191746     -2.44840813097356
  H   6.85345818021377     -0.46703682204596     -0.61969087533778
  H   1.39872992098555      1.67299807842984     -0.86231148406760
  H   3.40181128959327      1.52985115287307     -2.19058025556403
  N   -0.89365918107446      1.79208382148739      0.15908085351872
  C   5.83474797231115     -1.15268364953753      1.69768194421528
  N   6.36998189722980     -1.72815878485010      2.53396050341527
  C   1.69975634951089     -0.73016209314847      4.49203855383639
  N   2.21905681273897     -1.26230427711800      5.36671653882030
  C   -1.91649635382916      2.70680547370855      0.07410902981606
  O   -2.37590048562044      3.05817008675298     -0.98165492355569
  O   -2.31055509047628      3.16561106705584      1.26284370396740
  C   -3.33580668488417      4.16069534976321      1.20503335799913
  H   -2.98770290692432      5.02617193512427      0.64474413470145
  H   -3.54094580736818      4.42808744940730      2.23672739402925
  H   -4.22529872794157      3.75702450903915      0.72549927322104
  H   3.58899996224995     -0.78762447082822      2.83957585833766
  H   -0.75731792352035      0.19758934990057      4.45071395652540
  H   -1.92917070870970      1.28700391430081      2.57325346542905
  H   -0.58922200774601      1.49557349277860     -0.75408049187186
