30
Coordinates from ORCA-job 957optt
  C   -0.55546904591231      0.36428483150100     -0.80350589399004
  C   0.39372065313217      0.41309954411553     -1.77905737322020
  C   -0.24506900332881     -0.11691454974170      0.51810907777394
  C   1.70511491529813     -0.13143952755622     -1.55504668004546
  C   1.07465809358483     -0.53636607806683      0.81452059118088
  C   2.02333370038344     -0.66807101443561     -0.28445827406316
  C   -1.88306117253532      0.83403539922216     -1.07506529501436
  C   0.07787831058677      0.95899986231088     -3.06684005456111
  C   3.23886285836866     -1.37412250930173     -0.17652150881090
  C   2.63150093401272     -0.19454266742798     -2.61165135140619
  C   4.12267136603657     -1.45039158272017     -1.22720609478355
  C   3.83569605887808     -0.82975438384284     -2.44700931175960
  H   3.47129228773845     -1.90624498065620      0.73097944819207
  H   5.04166506355525     -2.00932690967473     -1.10895077572417
  H   2.36996397080823      0.24503607372386     -3.56556282104785
  H   4.54057320683801     -0.88027647198950     -3.26580602199471
  C   1.39196111810952     -0.80549814273954      2.17663219968385
  C   -1.24502382402168     -0.11854186384100      1.50596344943851
  C   -0.94083192401196     -0.48724593608310      2.78978614397435
  C   0.37988993716180     -0.78892333817324      3.12164185820722
  C   2.77305743273876     -0.97417511256734      2.67598018785035
  H   0.64169412320674     -0.96496598038572      4.15673045078483
  H   -2.24848635020661      0.19002908897659      1.24391078538426
  H   -1.70571820334861     -0.48929047109030      3.55449037655799
  N   -2.95321991885990      1.20146537990976     -1.26429626592341
  N   -0.13944306302634      1.39169066324356     -4.10683928762099
  C   3.13460322329790     -1.82866933060061      3.62490342149280
  H   3.51743889735812     -0.30972200655540      2.24845043517986
  H   2.43165372219335     -2.53431538207096      4.05145574099754
  H   4.15065263196396     -1.85604260348265      3.99458284326723
