34
Coordinates from ORCA-job 962optt
  C   -0.70072015547818      0.48115741403860     -0.94882862784856
  C   0.29709975110465      0.37139019578465     -1.87452342258343
  C   -0.49552316196776      0.07828497792503      0.41591855348781
  C   1.58961113248363     -0.14598879642542     -1.51570864677145
  C   0.76359994761933     -0.43045130716820      0.79736559756348
  C   1.81844092200101     -0.55273626918261     -0.18457599715772
  C   -1.98145059869368      1.00132901469833     -1.32984299363109
  C   0.06781902127401      0.77664783949060     -3.23074972304481
  C   3.09549046898410     -1.06643113301096      0.12543037845378
  C   2.61259318681408     -0.25280512198178     -2.47526352926460
  C   4.07701965099794     -1.16513625445543     -0.82242491374801
  C   3.85369668457577     -0.75645363450537     -2.15443269996933
  H   3.31646541266104     -1.39212593031917      1.13094548862087
  H   5.04192712807726     -1.56261517989384     -0.53771827962084
  H   2.41299479375272      0.06774234024167     -3.49103710733045
  C   0.92941042765268     -0.80363117005190      2.14798661835684
  C   -1.53040202420665      0.19163857869882      1.36192214983666
  C   -1.35194206634259     -0.18199844195609      2.67549047470598
  C   -0.08866216907415     -0.68418788591414      3.05392348874554
  H   1.87758104209037     -1.19298192796230      2.48765833161767
  H   0.08498100008778     -0.98214538093985      4.07918259103854
  H   -2.48938885040333      0.58364200115483      1.04398113523195
  N   -3.01823751995878      1.41282864042846     -1.59816436294825
  N   -0.07893838781717      1.09078637756099     -4.32437513731671
  C   -2.46785340116322     -0.04411527381926      3.62075759276509
  C   -2.45312556297046     -0.36200135502149      4.91011421563970
  H   -3.37985778469728      0.35994346036623      3.19290498700465
  H   -1.57968786819738     -0.76965348724250      5.40257739251467
  H   -3.33277230346438     -0.22076679876936      5.52270075743056
  C   4.88424544668165     -0.84926013560145     -3.19722626268031
  C   6.10620109218785     -1.34967952786333     -3.05522556843056
  H   4.58543006343386     -0.46748283223704     -4.16828220261664
  H   6.46863013491564     -1.75134663838017     -2.11768940662876
  H   6.79261454703958     -1.37379635768655     -3.89020087142234
