27
Coordinates from ORCA-job 981optt
  C   -0.22106871669127      0.24361266910755     -0.51653653777798
  C   0.71264417696157      0.16138853441113     -1.50283233981423
  C   0.07673992461703     -0.17952323838119      0.82375406750645
  C   2.03353310260458     -0.34972335205785     -1.24282673667322
  C   1.36454277646882     -0.68918585560941      1.12888974484523
  C   2.36206642744630     -0.78606744354210      0.06696177992312
  C   -1.52780290807069      0.75746433077428     -0.81131424554941
  C   0.38419544880707      0.59103280112487     -2.83115867589191
  C   3.67802377737175     -1.29326178078282      0.23582291959928
  C   2.95654683549977     -0.40759143350654     -2.30061251069183
  C   4.57116596730893     -1.34213147577934     -0.81435452620106
  C   4.21659979335759     -0.89916155028846     -2.08504602600910
  H   2.66118961673900     -0.06285405724237     -3.28168178910193
  C   1.59183662137196     -1.07269413535817      2.46886185050454
  C   -0.91343341492444     -0.07453713861496      1.81715398591966
  C   -0.65483366652773     -0.46094756727703      3.10625207914523
  C   0.61003840168059     -0.96025453529505      3.42579385407733
  H   0.82830659465816     -1.26531946483579      4.44092192753531
  H   -1.88535484681972      0.31827372946107      1.54845356716958
  N   -2.58034808007106      1.16358981613366     -1.01876071541644
  N   0.14518440574408      0.92878227300762     -3.90116157505793
  H   4.93414058069495     -0.94679517833055     -2.89267342984070
  H   -1.42099232727044     -0.37744615225241      3.86508573211588
  O   4.07139600879035     -1.74309699880763      1.45644334898648
  H   2.54877837075594     -1.46091139671769      2.76077682818103
  H   5.56530822488470     -1.73642727316348     -0.63463029627389
  H   4.98034690461219     -2.05528412617736      1.40241771879050
