28
Coordinates from ORCA-job 985optt
  C   -0.24316453064310      0.11107156906117     -0.54633711745348
  C   0.74093286080552      0.24698370241719     -1.47434434426668
  C   0.04676195327009     -0.32008894704264      0.79767057981975
  C   2.07829743491206     -0.21832557092707     -1.20696816138872
  C   1.38333515734435     -0.66618344979942      1.14132475161678
  C   2.36526062974962     -0.78525168914371      0.06180587733388
  C   -1.58877411549723      0.47656235888987     -0.88425426433804
  C   0.44163648693367      0.78866197922261     -2.76720632554303
  C   3.58646457447024     -1.49619819187632      0.13028735825740
  C   3.03100835303722     -0.18524919672910     -2.23722377194183
  C   4.51789762952915     -1.46342107631132     -0.88461446963177
  C   4.25705262293100     -0.77475566811042     -2.06474728750807
  H   2.77610261405967      0.28684508289980     -3.17604399512984
  C   1.65978774367358     -0.76817097240060      2.53349158793225
  C   -0.97647785699482     -0.27601200096851      1.75325930749706
  C   -0.68456516109449     -0.49774980225674      3.07740482734615
  C   0.63097398635742     -0.71147006319680      3.46058666357750
  H   0.90463402213992     -0.81207676215540      4.50198581678291
  H   -1.98282286950510     -0.03139518571007      1.44306330753534
  N   -2.67076726026041      0.75981289773676     -1.13858422709561
  N   0.23435960934790      1.22068875896024     -3.80957527280569
  H   4.99691567318467     -0.75000177695787     -2.85262177807444
  H   -1.46711162054579     -0.46228565311636      3.82325167891484
  O   3.81704571562614     -2.30285908038989      1.21564149806802
  O   2.89787235804039     -0.80649519703443      3.06801004145499
  H   5.44719416708508     -2.00883378478366     -0.76364024308152
  H   4.63671561079245     -2.79395612668960      1.09393690383948
  H   3.49624421125073     -1.32975615358769      2.51197105828233
