28
Coordinates from ORCA-job 991optt
  C   -0.24346712182937      0.25053913549565     -0.50099090256753
  C   0.68784838384803      0.15095927532978     -1.49444938155397
  C   0.05088250914207     -0.16231203674646      0.84343393664685
  C   2.00186676176877     -0.37739537299486     -1.23487061927189
  C   1.32971811137424     -0.68912464428631      1.13087245406794
  C   2.31859618298176     -0.78762250494679      0.07830763782783
  C   -1.54510972013604      0.77868447394626     -0.79157407935406
  C   0.36739875369028      0.57354174359847     -2.82630295055904
  C   3.61820526006174     -1.28663508461091      0.29543842100443
  C   2.94608267794610     -0.47100203616376     -2.26784676643836
  C   4.53445620967139     -1.37634128057281     -0.71622603214256
  C   4.21166171996573     -0.96746954138348     -2.02767782584765
  H   2.67365853387054     -0.15076543547045     -3.26620790000292
  C   1.58495361206314     -1.09733005819130      2.45527092710509
  C   -0.91828155661971     -0.05014431789622      1.85955219592114
  C   -0.63511767034547     -0.45265516641219      3.13813992548740
  C   0.62907620108203     -0.98227231787929      3.43360038238713
  H   0.85502845952285     -1.30412442993147      4.44178129645837
  H   -1.89099522373307      0.35770363753987      1.61573450070718
  N   -2.59482243786074      1.19640493557955     -0.99108578591919
  N   0.15320338547248      0.90371117002827     -3.90417088013439
  N   5.13515022308437     -1.11659810000816     -3.04184472529229
  H   -1.38279415216698     -0.36403571855064      3.91444901622635
  H   3.91590467059760     -1.61117616136261      1.28150685115815
  H   2.54746026475580     -1.51033404182654      2.71798618590754
  H   5.52337271911611     -1.77080988780435     -0.51550449556900
  H   4.97407094252146     -0.59018595246221     -3.88475883379776
  H   6.10356230015481     -1.16597028201700     -2.77265255245478
