30
Coordinates from ORCA-job 993optt
  C   -0.24088142855050      0.08700075092000     -0.55101732899622
  C   0.76656485015276      0.30287972371157     -1.43851284348637
  C   0.02962629101307     -0.39394356671962      0.78240993664317
  C   2.10857132789447     -0.15495470121296     -1.17016104397693
  C   1.37252605757423     -0.69598328998979      1.13470625603050
  C   2.37202833510270     -0.79076580975724      0.07285725898236
  C   -1.58868628513928      0.42697441925528     -0.90323878014604
  C   0.48493030013838      0.91252590415227     -2.70559434638764
  C   3.55736904340481     -1.57699700601990      0.13786739282355
  C   3.07380085680402     -0.07504566848631     -2.17916638027157
  C   4.50976880713162     -1.46846313018953     -0.87497521461430
  C   4.28916969174951     -0.69829854996667     -2.00429793112137
  H   2.84327977725896      0.44243731845631     -3.09990434627952
  C   1.65605652262396     -0.76542389176274      2.52833089395023
  C   -1.00721251908146     -0.42960006034971      1.72037480656764
  C   -0.71602805486667     -0.68326112328010      3.04207270264837
  C   0.60339657570502     -0.81230193436611      3.44183318666827
  H   0.84343321512835     -0.91514682910049      4.49339000709621
  H   -2.02029176455276     -0.22126006642970      1.40582693994852
  N   -2.67537288707895      0.68818156340146     -1.16199992468709
  N   0.28694547934291      1.40043119704716     -3.72481923377035
  H   5.04935650200490     -0.63810397122215     -2.77143638934121
  H   -1.50758408402798     -0.72274687945976      3.77822993320748
  N   3.81044228907776     -2.47918846706822      1.15351349881310
  N   2.94000049970676     -0.76143031372719      3.03894170337895
  H   5.42611089875970     -2.03846565775434     -0.77823150686985
  H   4.41683866923677     -3.24305022916763      0.90616410895219
  H   3.05115027031572     -2.73859828169092      1.76062105836796
  H   3.69552795712110     -0.50092372756329      2.42765063590299
  H   3.02723280605001     -0.40220772165965      3.97474494996698
