20
Coordinates from ORCA-job 1000optt
  C   -1.63187776778269      0.67040847194229      0.00000262813949
  C   -1.73046615364762     -0.70432641166457      0.00000136452776
  C   -0.38146058809643      1.29292593782704     -0.00000111062873
  C   0.80024881104433      0.51425232155641     -0.00000610674393
  C   0.74729699804885     -0.86306878667364     -0.00000616512462
  C   -0.56103134842151     -1.53811982626568     -0.00000415901786
  C   1.93317469711628     -1.65230102403051     -0.00000578099124
  C   3.17385335453655     -1.04580575683201      0.00000121288969
  C   3.27761948713397      0.34350814047350     -0.00000012326957
  C   2.11375706145900      1.18033182023255     -0.00001853991523
  O   4.33222009049391     -1.74690668372779      0.00000877486940
  H   4.24817525283405      0.82085643140106      0.00000824651267
  O   2.20245197798323      2.41512194343434      0.00000462653238
  H   1.82315846110449     -2.73038488350240     -0.00000461380035
  O   -2.71335741475267      1.48609604721725      0.00000644855622
  H   -0.30547777493055      2.37168095997473     -0.00000301644662
  H   -2.69081992420073     -1.20633699885566      0.00000375023725
  O   -0.63249939320409     -2.77305926453933     -0.00000315759602
  H   4.15125144924011     -2.69273478752931      0.00000855918145
  H   -3.52389727595846      0.96656234956170      0.00000716208787
