18
Coordinates from ORCA-job 1002optt
  C   -1.65231081004557      0.68377858890441      0.00000303325295
  C   -1.76437367764360     -0.69432636301739      0.00000387373105
  C   -0.40499998271030      1.28706883676932     -0.00000468578491
  C   0.78073422711723      0.49939703003661     -0.00000795832748
  C   0.71114774973836     -0.87630145682042     -0.00000716926531
  C   -0.60048324790660     -1.54122106723935     -0.00001022798852
  C   1.90033067468039     -1.67072967813271     -0.00000533530578
  C   3.13929672962345     -1.08191361029072      0.00000136762883
  C   3.25170393155748      0.30929619457522      0.00000089799854
  C   2.08769897666985      1.17973039044596     -0.00001722839215
  H   4.03902456999253     -1.68187189437923      0.00000801552540
  Cl  4.78342441436181      1.04184460739553      0.00001350316320
  O   2.17779288952570      2.40503389414997      0.00000851752330
  H   1.78778372416096     -2.74623767017665     -0.00000455525126
  H   -2.54272745760285      1.29841662801148      0.00000829149465
  H   -0.29499129658036      2.36287503501862     -0.00000665418604
  H   -2.72579952991958     -1.19050478613909      0.00001132604419
  O   -0.68667188501894     -2.77602467911158      0.00000498813936
