15
Coordinates from ORCA-job 1017optt
  C   -2.04687726224191      0.18344914637229      0.00381066594084
  C   -2.10214677220318     -1.18340929233059     -0.00269229717057
  C   -0.78259204486459      0.83342246030643      0.00324848935532
  C   0.42116176503720      0.06593316373858     -0.00386704799157
  C   0.35269273711061     -1.28756368688482     -0.01030045590081
  C   -0.91048005005509     -2.00168130199244     -0.01023799551280
  C   -3.20862608953000      1.11444641627901      0.01148255298117
  H   -3.03629445152477     -1.73407357147289     -0.00270660113812
  O   -0.68741016091606      2.11943222820107      0.00915739917607
  H   1.36266062388653      0.59672147414342     -0.00395054817470
  H   1.25223347328912     -1.88944583064923     -0.01578538932407
  O   -0.97245376779454     -3.23812577811094     -0.01596632156487
  O   -3.04558323756103      2.30318895903481      0.01645989128910
  O   -4.43962865254532      0.59749483708872      0.01285521514965
  H   -4.42433611008695     -0.36625922372342      0.00849244288538
