22
Coordinates from ORCA-job 1018optt
  C   1.63833285164851      3.79682272765530      0.88917452199892
  C   2.84482788613678      2.99540472479288      1.12277760007958
  C   0.40551640740111      3.08443412569814      0.57474579493341
  C   0.50352113793485      1.62808034914421      0.42472345576728
  C   1.63258500844820      0.92669698367619      0.60614074653055
  C   2.88836858238795      1.57840986084764      0.97103503538513
  C   1.73010475442783      5.21868612571856      0.92914349295812
  H   3.78138023618288      3.46199774787054      1.38631700979125
  H   -0.42761902450108      1.14185595985965      0.16046301734334
  H   1.66040668082475     -0.15025785489281      0.49494963845045
  O   -0.68899570682086      3.64336885931556      0.44774110176008
  O   3.94454902871911      0.95231565474244      1.16046109379125
  C   0.74507458769792      6.05168414960188      0.32918741569999
  C   2.82409923118463      5.86092465600762      1.57324820714289
  C   2.91022902291799      7.23230161900523      1.63580163363242
  C   0.85524009616561      7.42235569196984      0.38425191380197
  C   1.92982635801376      8.02289491351838      1.03873835226349
  H   2.00654188561994      9.10163413287840      1.07905832458423
  H   3.74097265051628      7.69519200156936      2.15108357868645
  H   -0.08288864287752      5.58953085650152     -0.18265226679155
  H   0.10258618794390      8.03687009924858     -0.09116406122896
  H   3.58425078002741      5.27488661527076      2.06702439341968
