18
Coordinates from ORCA-job 1021optt
  C   -1.62303009292886      0.71234109673077      0.00000000580359
  C   -1.74192453414391     -0.66798410376868     -0.00000004567865
  C   -0.37443336975260      1.29626009255186     -0.00000025747404
  C   0.80950607181534      0.49452430740839      0.00000012337640
  C   0.73104851571074     -0.88600981692895     -0.00000017413135
  C   -0.59352961896012     -1.53936651297959     -0.00000146450915
  C   1.95737558885042     -1.62230387315572      0.00000032618832
  C   3.19895629668742     -1.01213428833116      0.00000050775759
  C   3.28712626276795      0.36273571311365      0.00000054713974
  C   2.11118795877008      1.18483569404997      0.00000170979375
  H   4.07767142786903     -1.64287265291278      0.00000005871321
  H   4.24269380993131      0.86924718442438      0.00000006072730
  O   2.17062499857072      2.42167819379263     -0.00000202074364
  F   1.92379034534687     -2.93926723950227     -0.00000101005696
  H   -2.50933903439042      1.33282904363004      0.00000041849908
  H   -0.24319756645653      2.36941654058581      0.00000012921633
  H   -2.70552926193071     -1.15990699465049      0.00000048547659
  O   -0.73244779775674     -2.76568238405784      0.00000059990191
