28
Coordinates from ORCA-job 1024optt
  C   -1.34072649822220      0.07643296421891     -0.01851164945142
  C   0.12806419578324      0.12249570280911      0.00593395803125
  C   -1.98758884993873     -1.20222748532517     -0.05090298333513
  C   -1.19469570981163     -2.40285909146101     -0.06249178030126
  C   0.15297211835363     -2.35268223522234     -0.04199058341040
  C   0.85132161518348     -1.10215240587529     -0.00708574933859
  C   -2.12419079172393      1.19961573833565     -0.01151982408849
  C   -3.37456379057228     -1.29345226193398     -0.07204777295685
  C   -3.56317400463905      1.16193401812458     -0.03324322665585
  C   -4.18819215913413     -0.16878566927742     -0.06367166744231
  C   0.83744723920153      1.30490596509433      0.04177255823009
  C   2.27344691594322     -1.09567686395982      0.01592999763546
  C   2.97299518403187      0.06316418528521      0.05047133833266
  C   2.27830984064915      1.33937949189673      0.06553397529736
  H   -1.70601683572996      2.19617826655307      0.01104764906318
  O   -4.23289890187814      2.20495789279662     -0.02596267076610
  H   -3.82868599626969     -2.27796998493299     -0.09556273374270
  S   -5.88137826604915     -0.46564490704695     -0.09159736582937
  H   -1.71131641224886     -3.35440316485153     -0.08869226062249
  H   0.73769995296413     -3.26409269576595     -0.05142866265352
  H   0.35001608339964      2.26981282653646      0.05436466916420
  O   2.90030562760649      2.41239714634211      0.09714495473735
  H   2.78608868180132     -2.05031132442330      0.00483784052056
  H   4.05452939772584      0.08900961629224      0.06834661805616
  C   -6.74481822198974      1.11318561559736     -0.06954816713653
  H   -6.51034940492808      1.67244015149883      0.82996771896989
  H   -7.79681855791518      0.83212270344832     -0.08528411652719
  H   -6.49310245159276      1.70695580524622     -0.94183006377997
