24
Coordinates from ORCA-job 1033optt
  C   -1.58323829835640      0.61952474667457     -0.03931173947786
  C   -1.51173335287097     -0.78918516793640     -0.03645164604173
  C   -0.43981564523948      1.37144601409773     -0.01191236058849
  C   -0.29790628189447     -1.42109714911805     -0.00644799237897
  C   0.89961202645815     -0.67237227866814      0.02223169342782
  C   0.82756804039295      0.74827878652641      0.01960302320966
  H   -2.54988565615827      1.10477878254085     -0.06342160885183
  H   -0.49053114273476      2.45323743248957     -0.01402488327479
  H   -2.42407569759539     -1.37021004964499     -0.05826107873002
  H   -0.23848241676365     -2.50244579009466     -0.00409676665648
  C   2.02284097272333      1.50052459055478      0.04903997982348
  C   2.16476418557520     -1.29968504186342      0.05348328203796
  C   3.25478159614532      0.88244913961949      0.08028219010482
  C   3.32771789073608     -0.56019214213243      0.08232493441968
  C   4.46235855386145      1.62066494254562      0.11180376817056
  C   5.78644784456024      1.04994023184852      0.14659954051296
  C   5.86345115525028     -0.47358076174871      0.14600599810836
  C   4.60313578589450     -1.17395775884242      0.11391034779847
  H   1.97036335271727      2.58176257071574      0.04732657496436
  H   2.22187610476010     -2.38066962732878      0.05526474051746
  F   4.38126342866890      2.93463926660465      0.11021414774627
  O   6.79005494405956      1.73581857132608      0.17547018212397
  O   6.93115539633896     -1.05490866368975      0.17173883746817
  F   4.65312721347107     -2.48950064447629      0.11450883556615
