34
Coordinates from ORCA-job 103optt
  C   -1.66789978422683      0.07141533113333      0.02712398917509
  C   -0.18605615886339      0.07384957462739      0.05315094528726
  C   -2.35504046869891     -1.19801223121665     -0.18750674514175
  C   -1.63647233170638     -2.32907186499620     -0.40190668915674
  C   -0.20613034393078     -2.32083269652107     -0.41495585761357
  C   0.50603851491498     -1.18667345478098     -0.20162337240014
  C   -2.41444856965721      1.18199074122434      0.17699771055924
  C   -3.79835610830445     -1.22622395476384     -0.19686338253408
  C   -3.88765845749969      1.17616701170864      0.16712412315795
  C   -4.56620108074595     -0.13314381345603     -0.02917990310561
  C   0.54515134425002      1.17740783772454      0.31013972672642
  C   1.95457722057264     -1.20810223159473     -0.20338804226643
  C   2.67954372616142     -0.11024368915012      0.03759496351997
  C   2.01852996474945      1.17211230872263      0.31977686269013
  H   -1.98123204946608      2.16307083143522      0.32024853395419
  O   -4.49654978443386      2.21624362524727      0.32650765101776
  H   -4.26504377359077     -2.18967052658337     -0.37284448247586
  C   -6.03997472596010     -0.21079636076536     -0.02914768635442
  H   -2.15616193703863     -3.26432940566714     -0.57157827564389
  H   0.32001721447162     -3.25065884397502     -0.59540524861201
  H   0.09662474667414      2.13782403467800      0.52752762926475
  O   2.64671758993005      2.18833683237014      0.54991065488657
  H   2.43368394510714     -2.15925443608592     -0.40656579442383
  H   3.76132676931984     -0.11180779298274      0.04083090717094
  C   -6.81918062482978      0.75392569667012     -0.67080446518577
  C   -6.67831438447126     -1.28393457520834      0.59556999290401
  C   -8.19939142410926      0.62868635913718     -0.70450376462591
  C   -8.05907893026255     -1.40257753466009      0.56734313249969
  C   -8.82383411062181     -0.44711106716740     -0.08742190117466
  H   -8.79083113972376      1.37868406849360     -1.21324532539137
  H   -9.90214554331603     -0.53609267640898     -0.10983960683454
  H   -6.34035704082606      1.59875459222957     -1.14403389114578
  H   -6.08641333942632     -2.01781050694442      1.12888329463889
  H   -8.53776892444139     -2.23621118247355      1.06449431663352
