30
Coordinates from ORCA-job 1042optt
  C   -1.76631229700730     -0.69361952670587     -0.97449143175126
  C   -2.14930713955672     -1.73525124482262     -0.18610111906917
  C   -0.56403433275992      0.08666261544736     -0.76949018023809
  C   0.28295499215963     -0.28273274916340      0.36183761527521
  C   -0.09214929180462     -1.32695160110433      1.15816967319835
  C   -1.28248422652271     -2.05523117404663      0.90680632810231
  H   -2.37880509834175     -0.40009786294799     -1.81905171866583
  C   -3.42030513589664     -2.51802831574580     -0.41534770246674
  O   -0.28208766977670      1.02524226788167     -1.53043931005927
  C   1.55653947390344      0.47297927033928      0.64654847953682
  H   0.51185643647426     -1.62805938665806      2.00431977461873
  O   -1.57045743312853     -3.03821129796675      1.71158823787599
  C   -4.41366251465292     -2.31852342393580      0.73097003999613
  H   -4.01723422506548     -2.72156501380764      1.66541525982811
  H   -5.34704257760166     -2.83957004193817      0.51415388836390
  H   -4.63392877199690     -1.26163711400325      0.88135225356612
  C   -3.14506296835116     -4.00304275172762     -0.65203025131980
  H   -3.86404556186785     -2.10589361651733     -1.32468259053964
  H   -4.07332456767727     -4.52164781350164     -0.89481905289641
  H   -2.72903733123307     -4.47241000539471      0.24221642729026
  H   -2.44197156608592     -4.14964575004761     -1.47208360969152
  C   1.28112370030796      1.94637227617601      0.96354639539301
  H   0.87168069099860      2.45133304501922      0.09062302031055
  H   2.21143407420745      2.43952282780766      1.24977005915209
  H   0.57466586464693      2.04603492863500      1.78871949757251
  C   2.56012017326012      0.33515316639326     -0.50305270597986
  H   1.99893065144155      0.01445701040736      1.53574207486812
  H   3.49717180568787      0.82434582585654     -0.23246708644564
  H   2.16923594680648      0.80334966012177     -1.40472381683494
  H   2.77224889943290     -0.71335420404986     -0.71662844899001
