20
Coordinates from ORCA-job 1049optt
  C   1.61303398441885      1.33411667583000      1.58828202716426
  C   2.20894729143579      0.12995743782254      1.79634939822876
  C   0.49023917165489      1.48143531145266      0.68742837387357
  C   0.11368240361324      0.29055573911214     -0.10138330028577
  C   0.71064707469599     -0.95368670316564      0.16763994129078
  C   1.77116263890419     -1.02333971953386      1.12887607683732
  C   -0.89404425880847      0.41406188780796     -1.17568721726707
  C   -1.36632916645158     -0.81203864610117     -1.78198901855723
  C   -0.80606578032839     -2.01877329390358     -1.46929976527672
  C   0.22345661729051     -2.09987228482824     -0.53738831364228
  H   1.91801947036125      2.22339527420092      2.12268094384239
  H   3.02658730533133      0.01080940257397      2.49548243784882
  O   -0.13501947088148      2.53834818654022      0.63099078223802
  O   -1.29430603555290      1.49870416714749     -1.59335822189982
  H   -2.14057634390419     -0.71456077099327     -2.52982355851501
  H   -1.14254072301568     -2.92871003727813     -1.95552490372937
  O   2.41723856250562     -2.15285850053004      1.44377251497789
  O   0.79520652099733     -3.30252942434997     -0.25640385534117
  H   2.05742620838709     -2.90426808766074      0.95271088017359
  H   0.38919452934659     -4.00515661414323     -0.77544522196097
