21
Coordinates from ORCA-job 1051optt
  C   1.69224223428008      1.27072813501549      1.63274661956129
  C   2.26642594476209      0.03742812550373      1.85051032044881
  C   0.64214899818431      1.45883075115471      0.65120111156490
  C   0.14683059204971      0.25816097813478     -0.04220109035565
  C   0.79929465122056     -0.96817598391179      0.15739505959599
  C   1.84996617042611     -1.06454424085886      1.10938335438918
  C   -1.01269917483807      0.31686495364032     -0.95019784073171
  C   -1.31440023082383     -0.88050043167431     -1.71255318233703
  C   -0.62255363175235     -2.04978636679230     -1.52270458697429
  C   0.41045232988160     -2.11016984844052     -0.59213369718346
  H   2.04489555698311      2.14635966311773      2.16081540156042
  C   3.37417594420973     -0.04804293941549      2.86432109862955
  O   0.23701436572343      2.59246610317965      0.39569793295048
  O   -1.73389907110173      1.30907329271456     -1.04290828088131
  H   -2.14313193576092     -0.80606349671609     -2.40356399616023
  H   -0.88462292017997     -2.93609608099586     -2.08549818789832
  H   2.34329966706605     -2.02410956428361      1.21827560804241
  H   0.94349005869580     -3.03910214379558     -0.43354999011051
  O   4.05146544512598      0.88666906400459      3.15940488767347
  O   3.57346255457502     -1.25062161126540      3.43801900041575
  H   2.86217245127329     -1.86452835831576      3.22484045780025
