36
Coordinates from ORCA-job 1052optt
  C   1.40260481619636      2.26003110065969      0.65317968981988
  C   2.40365137695140      1.33676768226264      0.92371627199882
  C   0.00982249241299      1.79100951733075      0.51052445334569
  C   -0.24579728793369      0.34522086547451      0.42958394254734
  C   0.79558882603747     -0.54194616899782      0.71263868394208
  C   2.08898647833319     -0.02516206927476      0.96759375282194
  C   -1.57000438763657     -0.18507514092063      0.06263549561767
  C   -1.75675633446502     -1.62048176304491      0.17453642547809
  C   -0.71910452654289     -2.45859680326129      0.49763180973918
  C   0.54854421331917     -1.94132163030368      0.74765700757826
  C   1.58585645054475      3.75752424121440      0.55553265802193
  C   3.85170097704227      1.71348360641770      1.19247862996571
  O   -0.92075289193478      2.59455223948458      0.51307040839609
  H   2.87484441791130     -0.73885774102764      1.18625483490616
  O   -2.47885357159190      0.52261058976706     -0.37267839868208
  H   -2.74578178609899     -1.98937749752381     -0.06102852412896
  H   -0.87737879817051     -3.52821802416585      0.54559908460859
  H   1.36994547319021     -2.60571899692698      0.98474893341103
  C   2.55257116004890      4.18734457040859     -0.55499869219534
  H   3.59441860924929      3.94867797666027     -0.34548306898024
  H   2.48526228955219      5.26820309482507     -0.68900506553780
  H   2.28420557069048      3.71627250872151     -1.50154281534410
  C   1.90520792852162      4.40039726386139      1.91066176301318
  H   0.60640804839314      4.13788198471969      0.26930840688073
  H   1.94075346188130      5.48590796316837      1.80386292297925
  H   2.86099878768733      4.07334581925317      2.32091057217606
  H   1.12699456791892      4.15775430716704      2.63502138550974
  C   4.30546174975294      1.23737243369759      2.57415070522009
  H   5.32192894620141      1.57984253227860      2.77332762158072
  H   4.30499398456858      0.14835446226430      2.64499082279081
  H   3.65171495761345      1.62609375080983      3.35622386632254
  C   4.77169790353497      1.17989675061523      0.09273519557080
  H   3.93108070735921      2.79496413036326      1.18924350962720
  H   5.80028164160543      1.49714403186417      0.27111469189585
  H   4.46263059920348      1.54469988509410     -0.88780005780583
  H   4.75978314865243      0.08848252706376      0.06417307690882
