26
Coordinates from ORCA-job 1070optt
  C   -1.61217833046036      0.69166187443182     -0.11005402370788
  C   -1.91155520278228     -0.59821393088600     -0.49202084753157
  C   -0.30235395842912      1.02284177757365      0.18746184851813
  C   0.73591270844423      0.04381893797194      0.16947204362551
  C   0.45808498500621     -1.28949488080830     -0.08271077782645
  C   -0.90069616725780     -1.62628511705332     -0.56539140683901
  C   1.53437045152271     -2.26479360560152     -0.03621711602144
  C   2.85984904185160     -1.77718457538248      0.00448615528767
  C   3.14444275130469     -0.45138663490428      0.19042423410670
  C   2.11470684732511      0.52919709937577      0.36355546641897
  H   3.67799038939134     -2.48259834867558     -0.02470980042654
  H   4.16768414062787     -0.10986218184940      0.27467577006053
  O   2.34228326260941      1.71759211388267      0.61954998333351
  N   1.29733894775601     -3.60081327417166     -0.01147336438687
  H   -2.38451340975049      1.44885261745917     -0.08123291892897
  H   -0.00944388358367      2.03373042217103      0.43689843965543
  H   -2.90305360732895     -0.89114787345245     -0.81087922102224
  O   -1.16908356219618     -2.71652009177086     -1.08501655162113
  C   2.35960340231920     -4.53751548320804     -0.31565614361510
  C   0.19200168361144     -4.19643473544892      0.72438665236748
  H   2.93765109596243     -4.19227521022314     -1.16992610849746
  H   1.90395004863927     -5.49333350903886     -0.56972079089479
  H   3.02950189332908     -4.68977553071681      0.53848081009185
  H   -0.42082783844156     -3.42966728124650      1.18436235568805
  H   0.61095893802132     -4.82609551676707      1.51556607147862
  H   -0.43093462749154     -4.80008706166076      0.06679924068705
