18
Coordinates from ORCA-job 1074optt
  C   1.62804743608937      1.26257123883482      1.58656717569616
  C   2.18746320886611      0.03543106648215      1.84415667189334
  C   0.57393645981230      1.48799048343208      0.60300831832876
  C   0.10562192196304      0.28670231073381     -0.11194839223765
  C   0.70498774085800     -0.94656687549278      0.16835741439016
  C   1.73666157349928     -1.06726389111242      1.14122010553005
  C   -0.98028984542176      0.36622498476087     -1.11097395863596
  C   -1.34853002271068     -0.86390009230299     -1.78497415925239
  C   -0.74195207751241     -2.05975759668328     -1.50192488869255
  C   0.25711984626418     -2.08940140460385     -0.54442193998711
  F   2.04877392887604      2.32622089227786      2.24020335656647
  H   2.96914702540236     -0.04808350304801      2.58692524367540
  O   0.14760711399751      2.62028153769906      0.41653560306281
  O   -1.57015585283804      1.41320919191757     -1.37196083663803
  H   -2.13863911726287     -0.78369131154305     -2.51849562507311
  H   -1.01856698132694     -2.98039489180891     -1.99804165314452
  H   2.16490933166291     -2.04162371964073      1.32630481698262
  F   0.84304830978157     -3.25162841990220     -0.26591725246446
