30
Coordinates from ORCA-job 1077optt
  C   -3.15554047690669      0.00147613090325      0.01939532887484
  C   -2.93780496094658     -1.45493336759674      0.07946735523634
  C   -2.21928763847902      0.88991470997763      0.67219912463241
  C   -0.93565429649194      0.29713116250390      1.04423733064686
  C   -0.64768830095159     -1.00313884992234      0.86407456559356
  C   -1.60963199008312     -1.96797720685535      0.33394387938433
  C   -4.29354535343867      0.56008383231168     -0.77999101785541
  C   -4.09852118092198     -2.39480636668211     -0.04428963021393
  O   -2.44689616221228      2.09885395830025      0.81867141204399
  H   -0.20600092068728      0.98788379252147      1.44918862356333
  H   0.31647376614095     -1.41292782468859      1.13961939619590
  O   -1.32874569026021     -3.16789009053405      0.20663137489631
  C   -4.17058352933506     -3.40232802637228      1.10942258814272
  H   -3.31462273508809     -4.07223241436755      1.08974835241262
  H   -5.08429465125517     -3.98940945342640      1.01082412911428
  H   -4.19689772820524     -2.89331637154479      2.07378645818340
  C   -4.02751480541469     -3.11775267783126     -1.40344797118084
  H   -5.01554857772460     -1.80401520334308     -0.02117175644807
  H   -4.90740849742093     -3.75306731296043     -1.51442897975931
  H   -3.13233242344776     -3.73514608587670     -1.44599304571022
  H   -4.00740688194609     -2.41053513891333     -2.23393646527913
  C   -3.84326519526146      1.62712147221041     -1.78499086054137
  H   -3.45886301955621      2.50359610761728     -1.26928254944238
  H   -4.69671497159142      1.92017639444095     -2.39734273651637
  H   -3.06745816403882      1.24017406697188     -2.44692386054015
  C   -5.36346530680616      1.12146725116066      0.17656329941192
  H   -4.74106528250548     -0.25705335602356     -1.34784853661296
  H   -6.21455801909346      1.47218237427101     -0.40892920984231
  H   -4.95121476925240      1.95409939900127      0.74319570200223
  H   -5.71659223681840      0.36091909474695      0.87453769960740
