30
Coordinates from ORCA-job 1079optt
  C   2.17628184007626      0.78916580038346      1.64209620074254
  C   2.74726049403110     -0.44021884163851      1.42691153206885
  C   0.95015648031965      1.16335205068614      0.97343207999751
  C   0.26659511661369      0.12285802361864      0.18776478427049
  C   0.88752016968711     -1.12156974014945     -0.02813856547996
  C   2.14094370486055     -1.37810303737922      0.59164438018451
  C   -1.06533204792032      0.39835976753186     -0.38417817017104
  C   -1.56355520297326     -0.54769344209355     -1.36545134530927
  C   -0.91873742451770     -1.72674520056146     -1.59730266078031
  C   0.25521334408300     -2.06487291087002     -0.90759661708397
  O   0.54633272432621      2.32557349144324      1.02766172526966
  O   -1.75873283397236      1.34542611566198     -0.02821885599482
  H   -2.50229757247715     -0.29907294605192     -1.84139080083521
  H   -1.31562170570391     -2.45139043304458     -2.29544870282076
  H   2.63658573190876     -2.31844087461161      0.42572507703016
  C   0.75496326281416     -3.44329024737506     -1.19904692834041
  H   2.65942400618476      1.52943284877309      2.26509446837897
  C   4.05108540898112     -0.73068968844961      2.10334139235377
  O   4.59865298292307      0.03378401122775      2.84767433643931
  O   4.53782309411613     -1.93446938037279      1.78785167434302
  C   5.78582087528307     -2.26130340843140      2.40182040820077
  H   6.04151362649949     -3.25376658976266      2.04484002939575
  H   5.68358145808033     -2.25450135799513      3.48562057804978
  H   6.54658983858253     -1.53860568144576      2.11186845197346
  O   0.54089327625132     -4.00314312301159     -2.24092654042243
  O   1.40501592719814     -4.01696946665039     -0.18300788613336
  C   1.84037788147746     -5.35874491588961     -0.42005592332934
  H   2.34318720512898     -5.66930171366137      0.49014507133153
  H   2.52010107415191     -5.38846267397231     -1.26973609794126
  H   0.98407726398578     -5.99818643590809     -0.62636309538799
