24
Coordinates from ORCA-job 107optt
  C   1.82899726822234      2.12744936726312      0.77181760084497
  C   2.67460890387617      1.10073936004210      1.13831397515471
  C   0.49540418610082      1.84922012511997      0.19472478141817
  C   0.11711995033215      0.44831290899590      0.04338215534650
  C   1.01583218431378     -0.54747004722254      0.43094941069096
  C   2.28500729472612     -0.21791221300419      0.97338132665926
  C   -1.17967774441741      0.06527415353689     -0.50428057084578
  C   -1.46077287727698     -1.38262602348560     -0.61891462433702
  C   -0.53117336680246     -2.32199743920235     -0.22219427322229
  C   0.68916557718999     -1.92178253263065      0.29555490871424
  C   2.19725550721939      3.55775307221919      0.92784297858784
  H   3.64737066366605      1.32925127289102      1.55651875374116
  O   -0.20949904188010      2.80291864638519     -0.12183743314071
  H   2.94965418398474     -1.02373838742936      1.25981333416699
  O   -2.04498115417312      0.85449678393116     -0.87168827471133
  C   -2.78465871656450     -1.75837937201968     -1.17700901347938
  H   -0.75893687892702     -3.37683760875754     -0.31628445424658
  H   1.41812702244816     -2.65958495125551      0.60765024381388
  H   3.18964107170574      3.67304213703516      1.35847002391354
  H   1.45871809230328      4.06343309019146      1.55307861087597
  H   2.15072392711233      4.05945157139886     -0.04075694340352
  H   -3.57956851395486     -1.32287322915028     -0.56821052817489
  H   -2.90687314447987     -2.83810835184000     -1.23024298490288
  H   -2.90612439472473     -1.32032233301231     -2.16967900346380
