24
Coordinates from ORCA-job 1090optt
  C   -1.60371004491887      0.73087804436695      0.00000964417765
  C   -1.76197983744414     -0.65338284738334      0.00000978043734
  C   -0.35464567974387      1.31357994289506      0.00003549921847
  C   0.82416362226589      0.50908474666719      0.00004538560913
  C   0.72989810354766     -0.86371909476350      0.00004582850956
  C   -0.59065959542400     -1.50979096189519      0.00007260948274
  C   1.90870784948254     -1.66821324467511      0.00003184166619
  C   3.15777214504949     -1.08551047054693      0.00000558412980
  C   3.31604212476223      0.29875033882259      0.00000635250300
  C   2.14472082778639      1.15515688992557      0.00006162748865
  H   4.03990828854715     -1.71434839231712     -0.00001705090624
  C   4.65174966358927      0.95593862979327     -0.00003403046115
  O   2.25058375943751      2.38737589303224     -0.00001060021016
  H   1.78457709172725     -2.74256168194673      0.00003336205090
  H   -2.48584658696372      1.35971541608210     -0.00001424978638
  H   -0.23051382644409      2.38792824855700      0.00003455522171
  C   -3.09768800923926     -1.31056970746499     -0.00003537784913
  O   -0.69652364596031     -2.74200970943322     -0.00001030854103
  H   5.45477073565163      0.22183604835217     -0.00006718298041
  H   4.75302681920493      1.60561145150463      0.87152546016026
  H   4.75296776144893      1.60562587084022     -0.87158969819868
  H   -3.90070837117659     -0.57646614489580     -0.00007468451506
  H   -3.19897056719680     -1.96024003710555      0.87152525371253
  H   -3.19890262798921     -1.96025922841154     -0.87158960091968
