24
Coordinates from ORCA-job 1093optt
  C   -0.76162858585737      0.02748973846734     -0.00000186911429
  C   0.69683538902221      0.03701072897848      0.00000395646342
  C   -1.44130088534622     -1.21312451683974      0.00000705734650
  C   -0.69327887555251     -2.42763485375879     -0.00000346393728
  C   0.66221432278268     -2.41229467011652     -0.00000666720458
  C   1.39388826445279     -1.18959729816089     -0.00000655265278
  C   -1.50270074521553      1.20899608427672     -0.00001581420525
  C   -2.88142803271529     -1.21602677264621      0.00001481364489
  C   -2.93840508552160      1.20847153499289     -0.00001745336921
  C   -3.60661473786997     -0.07995394967399      0.00000275315825
  C   1.44084590526504      1.21767155253874      0.00001414065270
  C   2.82380697576127     -1.21370674033645     -0.00000994746628
  C   3.54781274600575     -0.07492284456818     -0.00000257031503
  C   2.87882644045919      1.21502926510416      0.00001637980886
  H   -1.03767891001930      2.18384810402549     -0.00003012561853
  O   -3.58104093941202      2.27004868238329     -0.00003012772738
  Cl  -3.71527958881963     -2.73574170248299      0.00004224191362
  H   -4.68747324566271     -0.08935378452665      0.00000858058792
  H   -1.22494468871437     -3.36747002212411     -0.00000092937406
  H   1.21522112340092     -3.34341046386374     -0.00001700782970
  H   0.98129993228456      2.19553778348481      0.00002813085060
  O   3.51712374997902      2.28123508823923      0.00003033205961
  H   3.31272785323454     -2.18066824951522     -0.00002039289353
  H   4.62959161805854     -0.07173269387765     -0.00000546477846
