22
Coordinates from ORCA-job 1097optt
  C   -0.86486022329023      0.97726917445796     -0.23486821712847
  C   -1.01178696706021     -0.38910730088439     -0.12433734623705
  C   0.39990288346272      1.55311169428391     -0.21105112896566
  C   1.56067169229824      0.74998574497067     -0.07324187632938
  C   1.45431882640069     -0.61846157259917      0.04027001427105
  C   0.13033490995747     -1.25455052449148      0.01781008832358
  C   2.62687430009532     -1.43269201894167      0.17990557059635
  C   3.86268217154483     -0.86186240417438      0.20047127086915
  C   4.05822264333490      0.53700405739954      0.08746839159269
  C   2.88721938437694      1.40560174004623     -0.05259632375197
  H   4.74000636605729     -1.48905127347047      0.30543801206016
  C   5.40651196787584      1.03488495167875      0.11566377429104
  O   2.96802426209663      2.62805337206116     -0.15092504100892
  H   2.48984150124322     -2.50170503087456      0.26617562065719
  H   -1.73689769114818      1.60908970871434     -0.34088789169907
  H   0.53395533059619      2.62277019025044     -0.29630943862112
  H   -1.98335635671222     -0.86503494413965     -0.13962894550144
  O   0.01433176050401     -2.48406987382289      0.11790470814006
  C   5.82096262666517      2.31010657107541      0.02031604184087
  H   6.16346954715734      0.26410540789256      0.22738734686465
  H   5.13046386777974      3.13054023917481     -0.09302550551628
  H   6.88053719676424      2.52689209139285      0.05775087525258
