24
Coordinates from ORCA-job 1099optt
  C   -3.20526297632999     -0.84734661129999     -0.11021746277955
  C   -2.17264403787940     -1.39066918973503     -0.81755217463813
  C   -3.01356694162519     -0.55368213720036      1.26647805144943
  C   -1.77572220141860     -0.84003421020971      1.89684855935254
  C   -0.75515273470393     -1.40708897501900      1.19534749336693
  C   -0.87848215797213     -1.68370381124369     -0.23429475638688
  C   0.49276552977468     -1.69479957067016      1.97398096459061
  O   -3.94506712820849     -0.02185121838206      2.00391843158677
  O   0.04916113036548     -2.09712780361278     -0.93394263717136
  C   -4.49534444217079     -0.57129172364018     -0.80285955878125
  O   -4.69482071942501     -0.79682635185655     -1.96277220027442
  O   -5.40014391979600     -0.04473676441133      0.02475936100830
  C   -6.67163372526541      0.25211442520207     -0.55843517867084
  H   -6.55123463408510      0.97785803076743     -1.36064735742135
  H   -7.27720368314108      0.65900530924793      0.24449074481424
  H   -7.11685474666513     -0.65662019773952     -0.95935823893658
  O   0.81987589921117     -1.04971267936024      2.93554968825199
  O   1.15095336305508     -2.75124729824031      1.52307763709696
  C   2.34067234290391     -3.08022773689025      2.24065000169545
  H   3.03657300548749     -2.24346294886225      2.21452929102392
  H   2.75806317577762     -3.94456168290283      1.73487825430626
  H   2.10281773727379     -3.31402454375803      3.27742554358760
  H   -2.30657475555750     -1.60010404716183     -1.87127928406284
  H   -1.65003337960534     -0.60499826302127      2.94530482699220
