36
Coordinates from ORCA-job 1102optt
  C   -1.62257367974973      0.60933311475872      0.04630036249693
  C   -1.56633712195664     -0.49054743938303     -0.80427441859193
  C   -0.45021169917376      1.03615264221057      0.65003267575736
  C   0.79359623994923      0.37947259887494      0.41763705068859
  C   0.87406482156132     -0.71127108406439     -0.41823087102141
  C   -0.34606761095586     -1.19980937821452     -1.07690671131342
  C   2.11787484424209     -1.36781931330220     -0.65074972652253
  C   3.29033985667926     -0.94075850730271     -0.04731136539359
  C   3.23409684090224      0.15906153885663      0.80328649625799
  C   2.01374351466642      0.86809810657644      1.07620123936027
  C   4.59901193166683     -1.65856323542571     -0.29765042506537
  H   4.11984698739118      0.53348810089572      1.30256868641771
  O   1.98397911606947      1.84942404537028      1.83200025673729
  H   2.11351079182678     -2.21892418689763     -1.32042621076334
  C   -2.93110795589161      1.32769298844344      0.29580021571017
  H   -0.44573927363108      1.88720328069409      1.31978038811548
  H   -2.45203815054209     -0.86475032160677     -1.30379772216729
  O   -0.31633125907526     -2.18119178704973     -1.83262841988141
  C   -3.44506608173375      1.98446721767280     -0.98683862649696
  H   -4.36618429417220      2.53433320946082     -0.78952334831432
  H   -3.66064452073373      1.22984811411693     -1.74612853383151
  H   -2.71031489708260      2.67712890905192     -1.39801158328577
  C   -3.98269706192118      0.38574201013488      0.88376434891132
  H   -2.73081483397681      2.11510221056906      1.02653322187051
  H   -4.89785831673697      0.93448285011394      1.10943760477916
  H   -3.62613501444752     -0.08323606876377      1.80107164446085
  H   -4.23561440707473     -0.40533262582522      0.17513296569049
  C   5.64871999269861     -0.71656909567517     -0.88893733040174
  H   5.29026552640635     -0.24982003783149     -1.80664553943817
  H   6.56421680196632     -1.26466031306069     -1.11482191696495
  H   5.90159242459013      0.07619384481315     -0.18217244769300
  C   5.11584740052953     -2.31280322337317      0.98509132369742
  H   4.39811409522664     -2.44728058614042     -1.02680289595796
  H   6.03699950327261     -2.86228844285121      0.78686417056570
  H   4.38246688107403     -3.00535994658288      1.39887518433498
  H   5.33240860813640     -1.55680918926364      1.74273025725246
