34
Coordinates from ORCA-job 1105optt
  C   -1.00457785312798     -0.40304808442916      0.10591548587285
  C   0.44631831942496     -0.27784651012705     -0.00306749991673
  C   -1.60578689119246     -1.67668655500919     -0.03903644289798
  C   -0.78180775742585     -2.79668945617212     -0.37834149317276
  C   0.56051783706679     -2.67099207388182     -0.51494457007780
  C   1.21484031807618     -1.42002229539492     -0.31438481599276
  C   -1.81802309252112      0.70552246744987      0.32497343663694
  C   -3.03562214439190     -1.82883144472202      0.10383042072780
  C   -3.24608592871969      0.59315523056005      0.40906693193957
  C   -3.81410024080849     -0.73540559288813      0.30225613624865
  C   1.11284329898727      0.92986412036863      0.19482871395678
  C   2.63609641950349     -1.32842379167566     -0.43592663944848
  C   3.28585210162628     -0.15987558108891     -0.24744269189694
  C   2.54219695878634      1.04292724700469      0.08636284190836
  H   -1.42101694239016      1.70533179879332      0.42452069118892
  O   -3.95903147931483      1.59761260831818      0.57982326994811
  C   -3.67447902362901     -3.17012517698058      0.04542548996655
  H   -4.88762968598468     -0.82246082732825      0.41333465747803
  H   -1.25055911722005     -3.75582884610459     -0.54577931457601
  H   1.16281739260649     -3.53009733462617     -0.78391430688231
  H   0.59549667273708      1.84393512142816      0.44850190548720
  O   3.11172693999151      2.13205782640416      0.27331817025082
  H   3.18166808109431     -2.23150328176816     -0.68317129542724
  H   4.36062184158069     -0.07052621523866     -0.33228258672467
  C   -4.69531623605703     -3.42029670887547     -0.86849037570764
  C   -3.30443629948059     -4.17729222107335      0.93695197618637
  C   -5.32959778450214     -4.65490062539552     -0.89645780982614
  C   -3.94142699406432     -5.40842550034085      0.91248080175485
  C   -4.95439628190695     -5.65106832999738     -0.00675472537792
  H   -6.11778664144134     -4.83710234647476     -1.61520404590884
  H   -5.45020552815067     -6.61261611244575     -0.02677787216326
  H   -4.98523795578708     -2.64266274230817     -1.56440803846384
  H   -2.52265685796123     -3.98559365094161      1.66260759052525
  H   -3.65163544540376     -6.17735511503873      1.61668600438424
