24
Coordinates from ORCA-job 1107optt
  C   1.80513124157511      2.14105384023343      0.84026093436179
  C   2.68524810936184      1.11569396821216      1.11319595398881
  C   0.49578488952398      1.84170002307840      0.25767173337245
  C   0.12930127381460      0.42392292542736      0.07580473874947
  C   1.07784360718804     -0.56860277304038      0.34276940181565
  C   2.35165728236164     -0.20669205404600      0.86038754183623
  C   -1.21823679391653      0.03208325650737     -0.38010806301421
  C   -1.46403236349343     -1.38495954189874     -0.65350830594380
  C   -0.47567031284262     -2.31306934332360     -0.40423501440971
  C   0.76113189794594     -1.93228389793043      0.09485296966532
  C   2.13468508248339      3.57630381905599      1.06619957851057
  H   3.66121750051582      1.34769994303303      1.52269623253594
  O   -0.23650716270438      2.76705739059526     -0.08758057633263
  H   3.06531995694817     -0.99417360336243      1.06805600460016
  O   -2.13699849666832      0.83956351417686     -0.50554613722477
  C   -2.81754247869168     -1.75551223182547     -1.15406480114502
  H   -0.67243702870739     -3.36217462025087     -0.59064971081612
  H   1.51656384579115     -2.68118030531448      0.29753947704671
  H   3.11612582280158      3.68669788518216      1.52336616930125
  H   1.38155335331267      4.04359049414245      1.70284285731358
  H   2.11197916871967      4.12356849586859      0.12195896794611
  H   -3.05258259942360     -1.20074639649803     -2.06382617501489
  H   -3.58065935388295     -1.47623028094021     -0.42510328119493
  H   -2.88351644201272     -2.82360050708240     -1.35258049594801
