24
Coordinates from ORCA-job 1115optt
  C   -1.49054005770123      0.95060672746947     -0.20196262712507
  C   -1.74837937986810     -0.39055944260044     -0.19420162966584
  C   -0.19630626419992      1.44508335386580     -0.05530232058374
  C   0.92265539881316      0.50468552784065     -0.02040932141913
  C   0.69639518575891     -0.87701037348257      0.02088244201618
  C   -0.70690192364175     -1.34388569933156      0.02945953028273
  C   1.81534590645220     -1.81742413097665      0.05562565036730
  C   3.10956701763391     -1.32300377968493      0.20254094101125
  C   3.36739133846036      0.01816916575004      0.19509805964775
  C   2.32596472778173      0.97153121444068     -0.02867594008514
  H   3.91824762455483     -2.03662036405163      0.25438259936715
  H   4.37223368160287      0.41318017659212      0.25817653956093
  O   2.65622024260986      2.14492214633932     -0.26417385440629
  C   1.85022139175722     -3.34656989651732     -0.14560842018710
  H   -2.29922210499621      1.66421435532578     -0.25388245846176
  C   -0.23117171036633      2.97432262816260      0.14530475241093
  H   -2.75324168580200     -0.78556248311264     -0.25701198927490
  O   -1.03706982978803     -2.51723276558741      0.26529317419104
  O   2.84294800053251     -3.79931690549753     -0.64815578535705
  O   0.87398099586163     -4.10618284500763      0.27786325679961
  O   -1.22396892870555      3.42733703426924      0.64747085603036
  O   0.74515460848021      3.73371516695314     -0.27836102248003
  H   1.56326663311840      3.18639738689375     -0.44001438828032
  H   0.05593913165129     -3.55892619805228      0.44005195564113
