30
Coordinates from ORCA-job 1127optt
  C   -0.87529958690710      1.72333638802922      1.13352966100647
  C   -1.86554565967042      0.76841950812772      0.65844190263632
  C   0.47351482609302      1.51489812612513      0.89440750788488
  C   0.89783702958907      0.38103650861884      0.19447483623564
  C   -0.01500694924188     -0.56512273131871     -0.28137522041372
  C   -1.37331907454878     -0.39403357136229     -0.06616833875279
  H   0.34077756684031     -1.41893358414391     -0.84386871594115
  O   -3.08303907281915      0.93816484127027      0.86383982076689
  C   2.34761009561112      0.17792720814636     -0.04847399503484
  C   2.90184500439416     -1.09188301561797      0.14039294005231
  C   3.13088420838340      1.26060104292179     -0.46059188313711
  C   4.48676045140691      1.09300182172636     -0.69189107017097
  C   5.11174889003482     -0.20847581743001     -0.50835555979612
  C   4.25381551641947     -1.30282905745431     -0.07865790240841
  H   2.27600610330568     -1.90475224550943      0.48615401696426
  H   2.66901145820949      2.22588014474325     -0.62457835709188
  O   6.32964943357971     -0.37870977588936     -0.71096184948859
  N   -1.38138695768211      2.78801443048912      1.79233737022818
  N   -2.32909860320653     -1.25229624119519     -0.48096275755340
  N   5.32506521259381      2.07694657147850     -1.08269536607708
  H   -2.37287766057138      2.78704466510461      1.97326658153355
  H   -0.78688357266282      3.43772870341295      2.27212193654579
  H   -3.28795515424759     -0.98360142874099     -0.32597708239126
  H   -2.11627923547853     -2.02434438555729     -1.08444631207530
  H   4.98154501169941      2.97654365771944     -1.36290194506318
  H   6.27372791945305      1.81320744395669     -1.29787534324261
  N   4.87806335302541     -2.49082932831318      0.06941325611816
  H   4.41335518232701     -3.27984663419472      0.47832608351478
  H   5.87947400369845     -2.50092231354458     -0.04407672724741
  H   1.20540026037188      2.21652906840166      1.27391251239858
