20
Coordinates from ORCA-job 1137optt
  C   -3.40654792273614      0.03773960132857      0.68865619059092
  C   -2.77632526910448     -0.42621069942657     -0.52250760431919
  C   -2.70043878272944      0.07339775069746      1.94042948366353
  C   -1.30527864919530     -0.39274230810895      1.90277344981960
  C   -0.71977246908038     -0.83045885818840      0.75577204060284
  C   -1.41251173873250     -0.87508680631982     -0.52016587224260
  O   -3.23761811644312      0.47205650751532      2.98172577344405
  O   -0.88321637374945     -1.27314871652537     -1.56873969676249
  S   -0.55640723034235     -0.30437207973687      3.46860763193678
  H   0.30593722790189     -1.17236586202892      0.73129627630051
  H   -3.29802419307600     -0.45444198212207     -1.46802277466825
  S   -5.00656205963838      0.57699961946308      0.78203716365447
  C   -5.63009230398758      0.42956962339832     -0.89884624374352
  H   -6.66136174757737      0.77184694720356     -0.85604015907359
  H   -5.60784587622494     -0.60543019436392     -1.23213154082933
  H   -5.06729482028288      1.06582391339294     -1.57804555836993
  C   1.09040532743549     -0.93012818610295      3.11335022346455
  H   1.62547995858278     -0.90886516484832      4.06032842720925
  H   1.60826067095190     -0.29440807828465      2.39693205176444
  H   1.05236436802839     -1.95547502694240      2.74871073755788
