18
Coordinates from ORCA-job 1139optt
  C   1.63378091650555      1.30879702912028      1.59898373848542
  C   2.20927766304949      0.08699760636322      1.82499537292823
  C   0.53970294612631      1.48459386910479      0.66053804844204
  C   0.11222328287623      0.29573765306744     -0.10334226855583
  C   0.70001374660643     -0.94981789284779      0.16119708487186
  C   1.73907791471429     -1.01217618484073      1.12414519725343
  C   -0.92650361148892      0.37609915620076     -1.14830212914718
  C   -1.34251633418541     -0.86997609112784     -1.76685755294718
  C   -0.75121401374061     -2.06768794708805     -1.45606841325136
  C   0.26983678057624     -2.12354914462860     -0.51215719226157
  H   1.94922830290922      2.19573480322822      2.13071170135534
  H   3.01225088295638     -0.05159499095013      2.53661971038792
  O   -0.00362217013379      2.58217219238845      0.54944806999868
  O   -1.41655183244003      1.44079497047279     -1.52106414106921
  H   -2.12420133455470     -0.78771709739937     -2.50983502883070
  H   -1.06879254945370     -2.97729689834620     -1.94870906378651
  F   2.29131406917022     -2.20117577337526      1.35674330767875
  H   0.74587534050677     -3.06358525934195     -0.27241644155211
