20
Coordinates from ORCA-job 1142optt
  C   1.65101002463593      1.26227868782410      1.60851530436069
  C   2.22032203790685      0.01829727197437      1.85984327451236
  C   0.58405611269751      1.45153132980859      0.62952103519672
  C   0.12385879557234      0.26446839707152     -0.09340987455522
  C   0.71957669828649     -0.96250042726134      0.18254130526558
  C   1.76239774363828     -1.06686287734325      1.15997650441156
  C   -0.95130824479809      0.36439147375260     -1.09522367255947
  C   -1.32306934235448     -0.88126029354642     -1.76523029413846
  C   -0.70256324656133     -2.08964398192645     -1.46050932116721
  C   0.28936145931764     -2.13497605373116     -0.51460326120799
  O   2.04762496126239      2.35170708290052      2.24578670519584
  H   3.00762471762434     -0.06812056539395      2.59616522379883
  O   0.15618408296981      2.60157977876197      0.49072842651019
  O   -1.52702591274653      1.40895588306569     -1.37846159977251
  O   -2.29236508332806     -0.76692860068592     -2.67466059887757
  H   -1.00902424620538     -2.99332136760370     -1.97581345429548
  H   2.19253583250894     -2.04386334689187      1.34026509385813
  H   0.76804814334993     -3.07711766709111     -0.28073071486513
  H   1.49676938023300      3.07788990740879      1.88880464253311
  H   -2.48724391400959     -1.62412463109296     -3.07007472420398
