30
Coordinates from ORCA-job 1143optt
  C   2.11964203206527      0.72075120135407      1.60145984625834
  C   2.67555133644237     -0.50308551014960      1.31082214217597
  C   0.87640128655760      1.16480081690868      1.00809733546993
  C   0.16713816771992      0.20240739283781      0.15256848573959
  C   0.78117951389644     -1.01670327721204     -0.17281575470532
  C   2.03443235127661     -1.36931382888786      0.41933569749770
  C   -1.17687459911071      0.50294786848228     -0.37638406094764
  C   -1.72649406209131     -0.42208187503621     -1.34773536628096
  C   -1.07414861498301     -1.58036692993071     -1.68116253920243
  C   0.15087354556650     -1.89361380085090     -1.09938347471836
  O   0.48390041506002      2.31581773646853      1.19468513246258
  O   -1.83898604063167      1.46631170397177      0.00653707283030
  H   -2.69425839262335     -0.16398331297482     -1.75583700035285
  H   -1.51284542323351     -2.26837725703962     -2.39185187687135
  C   2.63785157393744     -2.67906145464163     -0.00102155928008
  H   0.64333613356125     -2.81755448191404     -1.37171169340724
  H   2.62950075122058      1.40805947868085      2.26254768927516
  C   3.98037453781446     -0.81542572578349      1.98420461883017
  O   4.61186602702445     -0.00568437897876      2.60227780713558
  O   4.35297734442451     -2.08633866862443      1.83403880909726
  C   5.60867429662710     -2.42886991419381      2.42459627616619
  H   5.76800424937594     -3.47747341808770      2.19497958983683
  H   5.57094199231425     -2.26861374681924      3.50048584858191
  H   6.40012860973090     -1.81587310280313      1.99755714051968
  O   3.39897903099110     -2.79386624455969     -0.91823295170135
  O   2.15453441908890     -3.69171980724995      0.71468625036036
  C   2.68593430514355     -4.97598252680298      0.38112340442704
  H   3.76672936955054     -4.97469146126562      0.51520467562192
  H   2.45706710832435     -5.22266259648103     -0.65471732183079
  H   2.21221873495940     -5.67825287841665      1.05906577701185
