24
Coordinates from ORCA-job 1146optt
  C   -1.55180567178116      0.40883984747553     -0.05263648344442
  C   -1.58679447027825     -0.97162189267781     -0.14426031774078
  C   -0.33208584973745      1.07412198981716      0.00751824492536
  C   0.88983286245331      0.34917359066732      0.00638400539023
  C   0.89218444080431     -1.02608628953972     -0.07730194700895
  C   -0.37920970087454     -1.75774321045022     -0.16177344516865
  C   2.11669143354362     -1.76053153280026     -0.08598887192942
  C   3.32795090375015     -1.10846422402531     -0.00940245438196
  C   3.36955236497248      0.28635268772119      0.06140734262327
  C   2.16954847952075      1.07619847120933      0.08593743205823
  C   4.65193506956370     -1.82473935999741     -0.04380691189199
  H   4.32128233090475      0.79945905585638      0.09637859347629
  O   2.19985676239286      2.30754392873935      0.16713706407296
  H   2.02859027321290     -2.83586800148711     -0.18770093217464
  C   -2.79168981511433      1.26338612017826     -0.05683089183566
  H   -0.30509070672735      2.15497326428832      0.05194731849073
  H   -2.50860454953007     -1.53363057148675     -0.23967493359813
  O   -0.40471499864049     -2.99027667776773     -0.23914229443149
  O   -2.76799322972886      2.41277397279233     -0.37099197712243
  O   -3.94034450481410      0.67166319959187      0.30971237836038
  H   -3.79402633001549     -0.21608645005931      0.65433420804330
  O   5.66466435365632     -1.26200507441285     -0.32599571573491
  O   4.65146511310060     -3.13260800673013      0.25603079037834
  H   3.79176543936633     -3.43259483690240      0.57088979864433
