20
Coordinates from ORCA-job 1149optt
  C   -3.33142250562572     -0.20122866084125      0.91373025915432
  C   -2.57975242669891     -0.38263485972860     -0.31528524284119
  C   -2.67090868727866     -0.39176643764119      2.20602925457095
  C   -1.22691714925619     -0.51969291810180      2.17394703442120
  C   -0.51611828216155     -0.48149561759778      1.03097025460090
  C   -1.12330744810667     -0.36882213349153     -0.28298559190619
  O   -3.32250263547269     -0.37801912233207      3.25515298658406
  O   -0.44371550180265     -0.30074829755969     -1.31764092453924
  H   -0.74544575423792     -0.61234873242004      3.13947707326797
  H   0.56507576492357     -0.54441937899786      1.03363962816320
  S   -3.43400402824157     -0.78238231955236     -1.73273243030609
  S   -4.96018257524865      0.23961244985467      1.14615223388780
  C   -5.59669066909315      0.90038783836996     -0.40414547065742
  H   -6.42370795996008      1.54020394370783     -0.10138841954754
  H   -5.96668999878358      0.11678180574015     -1.05881707649618
  H   -4.84461564332344      1.49852966313415     -0.91401724251395
  C   -2.27027576548230     -1.51289871181990     -2.89628181245070
  H   -2.91016031551974     -2.01372163516062     -3.62101546599781
  H   -1.63370459952188     -2.22885403565316     -2.38484225534299
  H   -1.65840381910813     -0.75044283990889     -3.36322679205108
