28
Coordinates from ORCA-job 1159optt
  C   1.66208343722955     -0.52259239205958      2.14121457987381
  C   2.23870651602720     -1.73202515030545      1.93613802301063
  C   0.90161173746338      0.12468517635706      1.08898569936548
  C   0.54697727947369     -0.71057638081196     -0.07825006653085
  C   1.12026062795601     -1.98442321262897     -0.25695186920229
  C   2.06975357700112     -2.44233688014837      0.72770705363009
  C   -0.42526347122033     -0.17142776256205     -1.05255858939323
  C   -0.57076626909264     -0.90423120455373     -2.29614541722707
  C   -0.04390974494893     -2.14523999467649     -2.43502795936167
  C   0.72010712126558     -2.74881637750362     -1.41265704576390
  O   0.62109692871027      1.31417111551017      1.16788783954738
  O   -1.11748427672460      0.81361169221065     -0.82795845207680
  H   -1.18569308339665     -0.44970119101432     -3.06106693643462
  H   -0.24527840250408     -2.72264847877206     -3.32717540382125
  H   1.81504557146680      0.04266032559000      3.05061416138859
  H   2.88862321941717     -2.15664299338455      2.68925514977217
  S   3.13229145395433     -3.81420893387314      0.41596923006449
  S   1.05504015866193     -4.47546590959044     -1.54026130095883
  S   4.91562844834662     -3.24805013155998      1.25301088686217
  C   5.43749780253304     -1.94683144402701      0.11240178089455
  S   -0.65139707717373     -5.24143219038708     -2.37961293636384
  C   -1.81746909307638     -5.07506020010404     -1.00897273236884
  H   6.41669844069066     -1.61485966459821      0.45648397509332
  H   4.74006421619507     -1.11198208470145      0.15086781602675
  H   5.51412258192753     -2.33925650276612     -0.89839807184109
  H   -2.75449958261486     -5.51349924188459     -1.35121306669442
  H   -1.97522564998290     -4.02369760972300     -0.77557767974374
  H   -1.45414246758493     -5.61347237803154     -0.13730866774698
