36
Coordinates from ORCA-job 1160optt
  C   -1.65791912081584     -0.05617891867443     -0.36711177839339
  C   -1.68530976463925     -1.43924768542663     -0.19574214361093
  C   -0.47596203262244      0.65348457697265     -0.34883422888359
  C   0.77241027588403     -0.00936511045606     -0.15576693364242
  C   0.81008801455005     -1.37346519204315      0.01504824453559
  C   -0.43488870298784     -2.15478056780566      0.00176398897024
  C   2.05851033203325     -2.03650130117415      0.20376668128768
  C   3.23552596624776     -1.32124242504724      0.21991702367091
  C   3.26671614832112      0.06422431064051      0.05434880471241
  C   2.01638198093554      0.77785879695238     -0.14289242538772
  H   4.17205605357986     -1.84641200847694      0.36598416237538
  C   4.57253265303626      0.80893095074318      0.08253163964286
  O   1.97173014408679      2.00621921901303     -0.29567447471828
  H   2.04587551945682     -3.11015195614568      0.33306767785925
  H   -2.58601392217978      0.47820877692576     -0.52203215272611
  H   -0.46038591294702      1.72660621868526     -0.48137266358645
  C   -2.95104883834019     -2.24458867501244     -0.16250525739221
  O   -0.40773278530244     -3.38280184295925      0.15176451828918
  C   -3.29790801157966     -2.58520288788965      1.29562031059019
  H   -2.48156058443585     -3.12562628636865      1.77197092295373
  H   -4.19343377929525     -3.20720581049996      1.32870967721484
  H   -3.49504134199872     -1.67133982651425      1.86020456382299
  C   -4.13070490358349     -1.56697425889322     -0.85065782372516
  H   -2.73035504921327     -3.18779287308872     -0.66817570534961
  H   -4.97307912856648     -2.25724669025409     -0.89765069062561
  H   -3.88480094146190     -1.25986510276277     -1.86810734641684
  H   -4.46329504438333     -0.68648000288844     -0.29690955859297
  C   4.63764035861328      1.79856870307958      1.25244409994563
  H   3.90306047708493      2.59086031798008      1.12067158699831
  H   5.63147578194992      2.24640358129888      1.29632606240381
  H   4.44704545776734      1.29839349012454      2.20284999444822
  C   4.85877959718902      1.51409636412814     -1.24893038065650
  H   5.35188134309012      0.05746631899923      0.23674061175314
  H   4.81943633020648      0.81232045491675     -2.08300887491129
  H   5.85670632282518      1.95405642474610     -1.22091528665069
  H   4.13260710749492      2.30576091717533     -1.42334284620455
