22
Coordinates from ORCA-job 1171optt
  C   -1.62815917836289      0.86274726378210      0.05631926165136
  C   -1.83797113031897     -0.50232250340272      0.02893971889409
  C   -0.33648394727887      1.34421592825035      0.05337442136759
  C   0.78286738552773      0.45691483162397      0.00568711381446
  C   0.62856768734978     -0.91705130446818     -0.04664937988964
  C   -0.75225640573540     -1.45058141478300     -0.00467860592651
  C   1.80101597874781     -1.77319111998423     -0.10366035902422
  C   3.07039338545650     -1.16482755823450     -0.09068557996053
  C   3.24687900265808      0.18854263442947     -0.02797484762473
  C   2.12118032876297      1.08151764798868      0.01980166939829
  H   3.93921089236697     -1.80347526673002     -0.17693584951237
  H   4.23147134641853      0.63688671023628     -0.03546027407933
  O   2.24891780115801      2.30643816268339      0.06655536362314
  C   1.71889084279242     -3.22078454187367     -0.21192253115132
  H   -2.46598083478738      1.54637957218992      0.08781012519420
  H   -0.12026789257686      2.40308383020635      0.08658333118062
  H   -2.83070198361037     -0.93229694894956      0.04553694890244
  O   -1.00902509280166     -2.66153410549940      0.01678665286834
  C   2.67865975764915     -4.05690209816806      0.20200863928305
  H   0.81027391269802     -3.63308158358656     -0.62115124838680
  H   3.57684746205764     -3.71784235261368      0.70229533381131
  H   2.56152068182877     -5.12503578309694      0.08134009556652
