22
Coordinates from ORCA-job 1172optt
  C   -1.15853582164129     -0.01867832032485      0.14375735697337
  C   -0.92740516981567     -1.37115397453295     -0.01025385245225
  C   -0.09535734138470      0.86957900942667      0.23392572455568
  C   1.24175713460577      0.40220504758872      0.16891237112347
  C   1.51750109406536     -0.94086659780479      0.01563741742176
  C   0.40834357565046     -1.90336736383638     -0.08211570439317
  C   2.85832355399024     -1.42598634356224     -0.05126363111110
  C   3.92981899628067     -0.55980456431647      0.03593991041880
  C   3.68811390087751      0.81285679349350      0.19288029608737
  C   2.36027886116965      1.35133338917055      0.26575095007308
  H   4.50389705267767      1.52170922840679      0.26509143119999
  O   2.16614834230291      2.56654138981299      0.40390028974492
  H   -2.17294996147357      0.35420360532631      0.19493741561295
  H   -1.73717407807712     -2.08509743272802     -0.08300185229580
  O   0.62659074133558     -3.11475129330403     -0.22029607644492
  S   5.61372314504967     -1.04517096911171     -0.03409464306338
  H   -0.25339844451069      1.93272932911907      0.35509162631983
  H   2.98166565068674     -2.49247629345424     -0.17172430565397
  C   5.49598814017165     -2.82671090623160     -0.22927706901776
  H   6.52191915561081     -3.18505923401298     -0.27860175466249
  H   4.98194353402190     -3.08802953782942     -1.15261973231018
  H   4.99892793840641     -3.28342496129490      0.62477383187379
