21
Coordinates from ORCA-job 1181optt
  C   -1.49194530303528      0.66172561823031      0.01087497849358
  C   -1.66527227491647     -0.71108027436563     -0.03467078601914
  C   -0.22099875567372      1.20991456250103      0.03720861283088
  C   0.92997356686219      0.36930506153212      0.01714744044775
  C   0.79805781826339     -1.00100344281700     -0.02850781424376
  C   -0.54077157166744     -1.60997049110305     -0.05658882490074
  C   1.94572334457543     -1.84679563096107     -0.04778036870462
  C   3.21870877389933     -1.31491585193521     -0.01786125198326
  C   3.39324361158092      0.06921630850909      0.01351491988529
  C   2.27411687036213      0.96922205214532      0.04133091605398
  C   4.46576161961387     -2.15636142871851     -0.05250034346722
  H   4.38958990852472      0.49042267471489      0.01460887594220
  O   2.42411518366518      2.19628309904509      0.08178155886809
  H   1.74840532196906     -2.91040176055074     -0.11612790021588
  H   -2.35566232949080      1.31311866743692      0.02571828362081
  H   -0.06279174878360      2.27916383099478      0.07239468267881
  H   -2.64828404787369     -1.16257586800835     -0.05450620406681
  O   -0.67978895898721     -2.83824842352864     -0.09376145844383
  O   5.53355376022385     -1.69632349466341     -0.32071764607545
  O   4.33587853320310     -3.46182468481170      0.23403057459306
  H   3.44631667768501     -3.67929052364622      0.53280175470627
