26
Coordinates from ORCA-job 1182optt
  C   -0.73513992903325     -1.20054448105990     -0.22077676035885
  C   -0.02891024829275     -2.37023645027428     -0.66686634408338
  C   0.05625729649820     -0.06797563379077      0.27095024048156
  C   1.39560842825806     -0.08705882654673      0.30155375089912
  C   2.16313299291756     -1.23971120106832     -0.14414233571614
  C   1.42122832732420     -2.44486237076259     -0.63327389862016
  C   3.50283967527178     -1.25296671436316     -0.12883847877610
  C   4.29520579093368     -0.10847112341002      0.33268665561655
  C   3.58857892124569      1.05530659084857      0.79357006277636
  C   2.13732939736939      1.11093649200784      0.80820107319216
  N   5.58292835839656     -0.24807671073342      0.31079076636942
  O   1.55653531673188      2.09697172042571      1.22372235273543
  N   -2.02295363843541     -1.06385278126738     -0.19238653759223
  O   2.00104653908814     -3.45507396903256     -0.98711704032513
  H   -0.48505282812123      0.80664297068730      0.60885032054099
  H   4.04380166082542     -2.12684178434289     -0.46926782492526
  C   6.42488090576649      0.83160750288886      0.65103176885542
  O   7.48785687187561      0.42339504721290      1.35089587771742
  O   6.27643825801625      1.97154661552418      0.32381267101614
  C   -2.86006994547268     -2.06022588437780     -0.73650893068425
  O   -3.95645740307050     -2.24136592592509      0.00620240336518
  O   -2.67979444908914     -2.64742490686948     -1.76181123002060
  H   7.46255909752307     -0.53896698332907      1.43156892822768
  H   -3.94999944125933     -1.61137561885605      0.73853571370309
  H   4.12157344886565      1.92294447062159      1.15263395576727
  H   -0.56170340413338     -3.23592004420743     -1.03108716016174
