26
Coordinates from ORCA-job 1189optt
  C   2.36617580004103      0.49291350336701      1.69322405194531
  C   2.98787308365232     -0.73436019609959      1.41277870474928
  C   1.01173027048341      0.75309834372547      1.19329923902203
  C   0.47856928701321     -0.20752587769435      0.21092190794758
  C   1.12754263496191     -1.42385237371378     -0.00723718832039
  C   2.38790755171187     -1.67407096066046      0.62254110131431
  C   -0.75263868488112      0.09060518902724     -0.54219014210791
  C   -1.32525478889529     -0.97910858028761     -1.33949468047259
  C   -0.69060908605341     -2.18320484893016     -1.49209043624510
  C   0.54301284541250     -2.39759182426254     -0.84798183933830
  O   0.33721279340270      1.68414834715208      1.62295487259961
  O   -1.26728152261433      1.20770626011321     -0.55482432072194
  H   -2.24972915942962     -0.73155242928193     -1.84071108831686
  S   -1.27886802609032     -3.51991570808043     -2.46724091870994
  S   3.21283792596980      1.55594296488203      2.74625045043512
  H   3.96496680556803     -0.93400937672547      1.83623402814062
  H   2.88408444457837     -2.61691562590637      0.43111724654678
  H   1.05972997512239     -3.33990771017492     -0.98859302548532
  C   2.44739752201836      3.18090857801146      2.59406194008460
  H   2.27884256461370      3.42343015117042      1.54871358537775
  H   3.17827702502466      3.86447869195518      3.02289504533907
  H   1.50990893804245      3.22555771531944      3.13572202891268
  C   -2.82660444431308     -2.87322489246133     -3.10770940168944
  H   -3.25128635187760     -3.66920192083860     -3.71552517272552
  H   -2.65708499000643     -1.99790695525952     -3.73216383329178
  H   -3.51441241345550     -2.63533046434646     -2.29812215498966
