34
Coordinates from ORCA-job 1192optt
  C   2.17471199043009      0.48676960984378      1.30971923628357
  C   2.59709137689322     -0.75167955123225      0.83929046546442
  C   1.00279419237241      1.15149431305314      0.70532462038655
  C   0.29791673726520      0.44986577062884     -0.37592604200517
  C   0.80227540148887     -0.75895972833964     -0.85518762234666
  C   1.93491533854560     -1.34577456036941     -0.20916483493018
  C   -0.94782505263821      1.01393080538079     -0.93621385107195
  C   -1.54863397378679      0.28067483439306     -2.02733978389601
  C   -1.01332512958468     -0.87235224655782     -2.52582144091535
  C   0.15907715306478     -1.40341797134316     -1.97271175923244
  O   0.68700493752535      2.26120266406051      1.12450104661590
  O   -1.47697275387983      2.03504782470763     -0.50202061073347
  N   2.72245290661708      1.22784680292773      2.31752337906804
  H   2.22657160098118      2.10043573005682      2.48233718269302
  C   3.81802732861516      1.03909425765799      3.13176146659845
  O   4.13508801202827      1.83166617281191      3.97616749359547
  O   4.46912511975630     -0.09926573013403      2.87763245983365
  C   5.61459046569326     -0.32126602542133      3.70458402231713
  H   5.31829762254521     -0.36968437053241      4.75048509497421
  H   6.33433421608161      0.48400772173546      3.57233183098731
  H   6.03221169005466     -1.26855108124766      3.37832093968808
  H   3.43535952197102     -1.25224998291889      1.29367477310630
  H   2.27972741662778     -2.32672138636319     -0.50417174632065
  H   0.46404170939910     -4.91468553203807     -5.54515964393800
  O   -0.87917215678032     -3.46512700436466     -3.81525400403380
  C   0.78345640039480     -5.35800105700148     -4.60380406272130
  C   0.24020234328734     -3.44491838716638     -3.38342916056023
  O   1.19297555308978     -4.33846681893760     -3.69159253031818
  H   1.65588940746651     -5.98614273665331     -4.75238970404249
  N   0.76597536727970     -2.53484346712460     -2.49379486325352
  H   -0.03785765715780     -5.93393393708202     -4.18123112366973
  H   -2.45535011316847      0.70264555973671     -2.43885663393666
  H   -1.48108973525056     -1.38479496084434     -3.35122100905521
  H   1.72968276277233     -2.70568553132208     -2.25894358463107
