33
Coordinates from ORCA-job 1195optt
  C   -0.74955177972976      0.14589541280057      0.14184527803511
  C   0.69678451989319      0.13494545372835     -0.05502935820541
  C   -1.45319194020213     -1.07816345307734      0.26234554368672
  C   -0.73986041167723     -2.33851457982376      0.19815524150097
  C   0.61035123748890     -2.31563579284636      0.03871897224699
  C   1.35836411369873     -1.11018601765869     -0.09382315921166
  C   -1.45807968095660      1.34140322987567      0.22232388482948
  C   -2.87076377670763     -1.04589632715193      0.46450112337074
  C   -2.87855694813042      1.38551463252926      0.42008791897146
  C   -3.56174588730517      0.11380899988384      0.54101087984372
  C   1.45210138390229      1.29202979525250     -0.20546672164218
  C   2.77483780066464     -1.17033434624763     -0.27262147123783
  C   3.51542434339031     -0.04986090397210     -0.41648749020544
  C   2.87833463728134      1.25612039672429     -0.39172758680966
  H   -0.97102695763366      2.30248982399140      0.14185178871511
  O   -3.48651257998045      2.46892626450141      0.48561176494596
  H   -3.40720495518586     -1.97834400761882      0.56110720534607
  H   -4.63231968230560      0.13684676575985      0.69595807456917
  C   -1.49953664258623     -3.64660296826967      0.26968505473360
  H   1.16584041103154     -3.24380395980920      0.00321696633425
  H   1.01380091969107      2.27961329584154     -0.19311970683134
  O   3.53247726624796      2.30418658358499     -0.52567041331738
  H   3.24188414925345     -2.14807661000337     -0.29234294445923
  H   4.58818229545714     -0.07492965484532     -0.55445290822003
  C   -2.22464062107034     -3.90397751602196     -1.05934869425927
  H   -2.86521605140924     -3.07208568631868     -1.35040761390639
  H   -2.83731682217938     -4.80362143965310     -0.98900231831782
  H   -1.49008495776563     -4.05203267929760     -1.85316033772680
  C   -0.63042114415312     -4.85001956104459      0.62201741252118
  H   -2.24761443603262     -3.55251817015793      1.06091578980138
  H   -1.26522381088127     -5.72242720035308      0.77719306463242
  H   -0.05439268052235     -4.68103248694721      1.53236097992823
  H   0.06153868841411     -5.09340729335527     -0.18626621966208
