28
Coordinates from ORCA-job 1196optt
  C   0.03941784682538     -1.25782520243392     -0.55057238424353
  C   1.12697127538423     -1.71156661867569      0.17115382704548
  C   -0.11894385052026      0.09760443636944     -0.75915184262948
  C   0.85089076989897      1.03257514591419     -0.28967548420624
  C   1.99683054988641      0.62068173224007      0.36750783559723
  C   2.11244720563507     -0.81235390575514      0.71560337297164
  C   2.98871911783125      1.59610736516226      0.76935882873653
  C   2.68067711577520      2.95567247136650      0.63149291910243
  C   1.52540821843889      3.39355320215636      0.03310858920721
  C   0.56847478830487      2.46544378173888     -0.50315434037613
  O   -0.45020911370272      2.83214027313330     -1.09514743540350
  H   -0.69798091848658     -1.95526787496095     -0.92521752200971
  H   1.26208866977978     -2.75822972707882      0.40984942823552
  O   2.97395624455549     -1.23956254243775      1.49447184218689
  H   -0.97563865839441      0.49900601122578     -1.28291754438494
  C   4.34290259716954      1.24437681294895      1.21865865175145
  C   4.93190887741855      1.93151217477518      2.28295601318875
  C   5.10127459686779      0.29165673313168      0.53169574080564
  C   6.41110743280064      0.03968060564492      0.89656231610063
  C   6.23611149123676      1.65918351318080      2.66375545063407
  C   6.98118432868090      0.71688381467600      1.96806418711086
  H   4.35017815949531      2.65922256650621      2.83504555198703
  H   6.67037364630965      2.18218894685531      3.50558364589108
  H   6.98887358600885     -0.69228568412040      0.34796387329199
  H   8.00213483163656      0.50887365292523      2.26017581888320
  H   4.66136489265780     -0.24029419926864     -0.30140562232346
  H   1.31793818283782      4.44684679729537     -0.10102990725304
  H   3.42231811566819      3.67833571748483      0.94780419010242
