32
Coordinates from ORCA-job 1197optt
  C   -0.85233630126746      2.05521786856684      1.08379561896286
  C   -1.89343355510735      1.14845310618517      0.64953417491400
  C   0.45265035371164      1.74685153262316      0.83922705529261
  C   0.84453821505574      0.55127778057401      0.16978692456502
  C   -0.11384467236378     -0.34659751162910     -0.25224058984979
  C   -1.46978686365633     -0.07727585714551     -0.03340727062548
  H   1.22963110668695      2.41710155367617      1.18780523485199
  O   -3.10452729296095      1.35916645792219      0.82754440215991
  C   2.27662419480329      0.28318540602378     -0.08730087707321
  C   2.78732891889507     -1.04172359144985      0.03804024405051
  C   3.11577289493320      1.31132160962368     -0.46339897138074
  C   4.46452955313501      1.05121818719250     -0.73169035308517
  C   5.00771239517688     -0.30481024819136     -0.61329908864268
  C   4.09260250096048     -1.34939980709755     -0.20563001612889
  H   2.11136951019092     -1.82238885835504      0.36679126714495
  H   2.73152311111934      2.31732845919367     -0.58291897612993
  O   6.20864047035991     -0.50346793784192     -0.86084577472954
  N   5.34431621178951      1.98576075123515     -1.11380524677865
  C   -1.28496809342055      3.29461296579313      1.79791431471927
  N   -2.46422044214329     -0.88506580370798     -0.42359465139904
  H   -1.86168354482021      3.03873766217534      2.68825346979698
  H   -1.94723349349019      3.88688295413183      1.16426838351497
  H   -0.42788300077017      3.90015955343987      2.08735489440545
  H   -3.40544623016119     -0.58585806395558     -0.21246203867341
  H   -2.29823855692114     -1.75055230465889     -0.90353447973149
  H   5.08871279168724      2.94838102587463     -1.23624155546963
  H   6.29135904496200      1.67886105591013     -1.28412144730500
  C   4.65368188433514     -2.72723486673331     -0.06587443376365
  H   3.88900203104164     -3.43193188812443      0.25608833564685
  H   5.47402681476738     -2.73257673047210      0.65364498970639
  H   5.07674415404025     -3.06314765074172     -1.01409670694759
  H   0.17340588943096     -1.24725681003691     -0.78167683201789
