24
Coordinates from ORCA-job 1202optt
  C   -1.62432210912165      1.14998981173088     -0.09871276490752
  C   -2.02661961381045     -0.13869261456696     -0.40629490828569
  C   -0.29101339592615      1.42086868424853      0.13922559964148
  C   0.68349804156071      0.37817047523065      0.10040288500594
  C   0.31691907153084     -0.92616604077956     -0.15713167631763
  C   -1.08760772051989     -1.22671092185546     -0.48164947131321
  C   1.31085267080554     -1.96026377265163     -0.16537261055045
  C   2.65262000316274     -1.64903919458623     -0.01077961019230
  C   3.05380441945341     -0.34937790122413      0.23016614074553
  C   2.09865536232899      0.72216015994625      0.32359577170422
  H   3.38157573336583     -2.44784491704763     -0.06150333991978
  H   4.09455782708846     -0.09100461717533      0.37221783771199
  O   2.43965324114556      1.88531097297123      0.56376300402270
  C   0.94359459799508     -3.40561925453443     -0.31932812453195
  H   -2.35171957439872      1.94996648517138     -0.06164761722169
  H   0.05777147262223      2.42082968940436      0.35780334256749
  H   -3.05753748825331     -0.37861597932159     -0.63035131479757
  O   -1.43830850833435     -2.35720668673672     -0.84199612327948
  O   1.29651231468263     -4.07800177561513     -1.24596552025041
  O   0.27068015740251     -3.84912322187803      0.73814183982892
  C   -0.24893527604916     -5.17393278599877      0.60767088085508
  H   0.55931604048471     -5.88463339962318      0.44490457814302
  H   -0.93990386561897     -5.20609525617646     -0.23376362891739
  H   -0.76499340159659     -5.38309793893199      1.53912483025869
