36
Coordinates from ORCA-job 1209optt
  C   -1.64357818734691      0.93876567294956     -0.21690025170734
  C   -1.79133521827930     -0.38489505948806     -0.56610405641556
  C   -0.40779683893081      1.51855339774340      0.07404991460003
  C   0.77672439921176      0.67810329538274      0.01328422374589
  C   0.65018229079577     -0.65765070448251     -0.33068493360333
  C   -0.65940362838023     -1.25334377167539     -0.64459658525054
  C   1.77971757437674     -1.53017701505021     -0.39489139398682
  C   3.04510557760395     -1.08307433243723     -0.10834997140790
  C   3.26165057170230      0.24301187837578      0.25115968384053
  C   2.13927406991573      1.17406717912928      0.32623970982764
  H   3.87757728169523     -1.77210929588189     -0.15897316035061
  C   4.62753050726439      0.79869613127845      0.53399043985579
  O   2.36202973375502      2.34665951424287      0.65187784622800
  H   1.58869331510744     -2.55692907619595     -0.67476158275846
  H   -2.52809792465215      1.55739645367989     -0.16841963753114
  C   -0.34700061113926      2.99773779858579      0.37672766391131
  H   -2.76033288703918     -0.81028138472867     -0.79149517558461
  O   -0.75718624449005     -2.44865930987909     -0.95601738495282
  C   5.12415399151013      1.57607392506821     -0.69582016751297
  H   5.22536545308440      0.90486138774021     -1.55138625533724
  H   6.10160471312091      2.01360667140402     -0.48796003058204
  H   4.43320237415572      2.37672760300902     -0.95442684002527
  C   5.64737147836542     -0.25819980411875      0.94455291854331
  H   4.50977581893096      1.52045140078637      1.34478181939979
  H   5.89760322787098     -0.91849851889915      0.11171086668600
  H   5.28591774060787     -0.87090512576936      1.77157930758416
  H   6.57034633505815      0.22848803470979      1.26009550948287
  C   -1.66732968439349      3.59428822200539      0.86054384709214
  H   -2.41098746528751      3.65274872583190      0.06361098566475
  H   -1.48723551857139      4.61260339162585      1.20569549826956
  H   -2.09251604060062      3.02688807517368      1.68957987630974
  C   0.13331780406651      3.74753605141152     -0.87629361335593
  H   0.39900977031209      3.14937086097947      1.15228836322045
  H   0.22927446308253      4.81143418286493     -0.65507393839291
  H   -0.59216255594441      3.62850123985288     -1.68428223348117
  H   1.10074431346121      3.38120230477520     -1.21323126202529
