28
Coordinates from ORCA-job 1215optt
  C   -0.76664483018120      0.03233140384423     -0.02114524707684
  C   0.68069015867810      0.04255024203134     -0.02118164993745
  C   -1.45242733152402     -1.19522719914040     -0.06685870552486
  C   -0.70771902426843     -2.39337166976293     -0.19476420568486
  C   0.65591802390313     -2.38374309121572     -0.19473425926321
  C   1.38365263433323     -1.17520873680099     -0.06686382354295
  C   -1.51513872605032      1.22463139294640      0.00382516042669
  C   -2.90837380079018     -1.22197103643516     -0.01455630324286
  C   -2.95912074577246      1.21767457798822     -0.00515339415824
  C   -3.61708888080621     -0.06791636979937      0.00008749543150
  C   1.41230995030870      1.24531755671714      0.00368172027700
  C   2.83982505456820     -1.18136168488884     -0.01452467329702
  C   3.53224257861822     -0.01741563908842     -0.00022948853748
  C   2.85623730825184      1.25881630218083     -0.00559545615979
  H   -1.05560121596542      2.20087570068288      0.02396370477735
  O   -3.58332665253037      2.28737699687565      0.00658268111837
  N   -3.53283252016805     -2.46144937360622     -0.04501069696632
  H   -4.69910076066624     -0.06856883945234      0.03725070685187
  H   -1.22271319324106     -3.33293291660374     -0.33805498242036
  H   1.18413181577552     -3.31595655367592     -0.33791598477098
  H   0.93900260886177      2.21495787297632      0.02397520291051
  O   3.46510074861346      2.33736749517373      0.00587644088935
  N   3.48157886346838     -2.41195058865858     -0.04438399120423
  H   4.61415888875147     -0.00296290893659      0.03693914589175
  H   -3.08996494424838     -3.19302733191009      0.48871412772105
  H   -4.52617293341404     -2.42547791624836      0.12500135801770
  H   3.04868257261930     -3.14961126134242      0.48915056046008
  H   4.47426435287507     -2.36218642385064      0.12593455701423
