24
Coordinates from ORCA-job 1224optt
  C   -2.20997153005646     -0.48305450000305      0.58985818960622
  C   -1.50397236093657     -1.63193106359681      0.37825868992665
  C   -1.80859221763628      0.70519051268367     -0.06924653012868
  C   -0.68890485866310      0.72437319097908     -0.94446688364832
  C   0.00242855794863     -0.42431149490100     -1.15482616551083
  C   -0.35782157866662     -1.67344981748214     -0.51427452052405
  C   -2.05188491798170     -2.91334489621282      0.95826800592191
  O   -2.47321539116932      1.80808204304340      0.12977597586657
  O   0.26628919040734     -2.72077711785193     -0.72202681504700
  H   -0.42083718786863      1.65735692712064     -1.41966569256077
  C   -3.34038584058047     -0.44078787988525      1.59346979796784
  H   0.85429495748880     -0.44792603430441     -1.82170965539153
  O   -3.11371834369824     -0.56055749499796      2.75968085880196
  O   -4.56725287522439     -0.21647288412111      1.13269163867356
  C   -4.85503482259284     -0.44381665260718     -0.25193543609385
  H   -5.93747135119395     -0.41962330720258     -0.32823023540498
  H   -4.48317919481122     -1.42117891044189     -0.55717037728886
  H   -4.43226554165749      0.34784906661403     -0.87128333100168
  O   -3.15120708129852     -3.27021894767640      0.63711168036862
  O   -1.31749063764360     -3.60737925299188      1.80885301341682
  C   -0.10322848685087     -3.06059656013966      2.32920074983253
  H   0.68639144475071     -3.12902065647564      1.58394247127540
  H   0.14102506559143     -3.67036380796530      3.19337026467687
  H   -0.25509499765656     -2.02865046158376      2.64766430626561
