36
Coordinates from ORCA-job 1225optt
  C   1.87330089200412      1.94395878670696      0.65119411445590
  C   2.83491489551053      1.00018546265584      0.90399476603607
  C   0.52039374631212      1.60642703810551      0.24496195898220
  C   0.17659324143500      0.17504120263740      0.18244427936134
  C   1.18202774275424     -0.77384762130769      0.41943514811068
  C   2.48840165666018     -0.35173218094231      0.77478797953024
  C   -1.18604866747224     -0.29517689810383     -0.12000921769000
  C   -1.38085508372519     -1.72603828492202     -0.24698717712869
  C   -0.37285003694283     -2.64130137416158     -0.03591438147721
  C   0.89105661842607     -2.16175625525154      0.30380813481980
  H   2.08851712136851      3.00369436632135      0.71477634017597
  C   4.23919417007457      1.39332257651406      1.30736609625859
  O   -0.27129823490272      2.50003453880076     -0.05283563780361
  H   3.23495333966430     -1.11628706216910      0.95774645474340
  O   -2.14563133324363      0.46840256757638     -0.23814541693798
  H   -2.39046820939664     -2.03299896048499     -0.49166110079341
  C   -0.62695458587304     -4.12991489871156     -0.14750904535530
  H   1.69502686812001     -2.86668333113067      0.48451975382263
  C   4.57604025937663      0.87432549326599      2.70617541550250
  H   5.56732782479953      1.21413460315658      3.00879755568728
  H   4.57847664715741     -0.21761464066950      2.72541017705033
  H   3.85134668491453      1.22349767494723      3.44196242572148
  C   5.26790807688766      0.91166682227467      0.28340182239155
  H   4.26907909100968      2.48516660747171      1.33244256869533
  H   6.26654729680522      1.25146484495280      0.56081089406768
  H   5.03922475650496      1.28873273519346     -0.71359791713899
  H   5.28985675323748     -0.17914114064380      0.23619664922074
  C   -1.60820364154980     -4.59825000819331      0.92863838574388
  H   -1.24863316438668     -4.35033298958848      1.92769314794651
  H   -1.75035495093087     -5.67815993405199      0.86997558257435
  H   -2.58135610897453     -4.12260519711577      0.79290454382419
  C   -1.12926330704985     -4.50614209379156     -1.54186241074905
  H   0.32826533886403     -4.63520277798731      0.01868386188116
  H   -1.25533916254577     -5.58674019625508     -1.62024026614229
  H   -0.43229210489086     -4.18233899340322     -2.31519267547522
  H   -2.09629443000227     -4.04151048169530     -1.74267280991208
