33
Coordinates from ORCA-job 122optt
  C   -0.86421373266425     -0.15664417407848      0.00347964509377
  C   0.61641926943737     -0.08033315532240     -0.01154992882110
  C   -1.50069424538970     -1.46329703081679      0.20797446397169
  C   -0.71302498703494     -2.52387735166966      0.51730635595953
  C   0.71177784594990     -2.41977628155134      0.63025289802735
  C   1.37135066085362     -1.26468397565946      0.38072084670869
  C   -1.63148355370919      0.94284488258036     -0.12003193990608
  C   -2.96606408109321     -1.57470866033256      0.13593313707771
  C   -3.09765743458448      0.87134386383316     -0.13704998356478
  C   -3.69918117219515     -0.46066994635916     -0.01964961917844
  C   1.29249214832769      1.02094321049951     -0.39853429597976
  C   2.81747400101506     -1.19745922191276      0.44195303809914
  C   3.48610113675468     -0.09213484575861      0.09677638961815
  C   2.76286910629675      1.10173904133796     -0.36843361957977
  H   -1.21668962249244      1.93851805464900     -0.20292997044242
  O   -3.77499703593582      1.87660792748259     -0.25087356282250
  C   -3.60945481849291     -2.94530421494269      0.21145444623752
  H   -4.77942844641093     -0.48139491767264     -0.06157914195166
  H   -1.15292736142067     -3.49373274866042      0.70106726626724
  H   1.27452320325443     -3.30466025199747      0.90340254412444
  H   0.79733552530169      1.91218783268323     -0.76068657942741
  O   3.34241092756826      2.11400828986165     -0.71430045426331
  H   3.34094516663355     -2.08865177930573      0.76940393061503
  H   4.56529743389427     -0.02526395061106      0.13040415348136
  C   -5.10489766156277     -2.90213489051078      0.50834689568269
  H   -5.32228011658518     -2.32141205544896      1.40495639173242
  H   -5.47513478750131     -3.91643041665867      0.65840332133066
  H   -5.66212796145031     -2.47085134870162     -0.32489661110595
  C   -3.36410974138172     -3.71803899191388     -1.09200799226217
  H   -3.13729756641274     -3.49075272213332      1.03290633749568
  H   -3.77605742652237     -4.72519318336846     -1.01734753344204
  H   -2.30527064577985     -3.79578214277118     -1.33602217077553
  H   -3.86135402666728     -3.20754484476933     -1.91883865800014
