14
Coordinates from ORCA-job 1232optt
  C   -2.99341190219675     -0.10707010210164      0.14391594003469
  C   -2.13191542673865     -0.60596291415954     -0.89600827491834
  C   -2.54325395260859     -0.05920446857086      1.50835822525037
  C   -1.19731818209270     -0.53818610188194      1.75350449624596
  C   -0.39180252334844     -1.00548975227027      0.76475449429190
  C   -0.79032899570958     -1.07259293130512     -0.61908152228156
  O   -3.30311886785544      0.37833128306028      2.39183004169732
  O   -0.08886531106059     -1.48953618047227     -1.56261736993108
  N   -2.52960646870231     -0.66124413798404     -2.16069967489114
  H   -0.85858887507375     -0.50410639417777      2.78101193461203
  H   -3.99453039666550      0.24275638213424     -0.07731657840240
  H   0.60920190375433     -1.35524339841238      0.98588046640156
  H   -3.44052984892348     -0.36278576399199     -2.46689456156362
  H   -1.84708115277854     -1.02942551986671     -2.81814761654569
