19
Coordinates from ORCA-job 1234optt
  C   -1.64775126783089      0.70356961074545      0.00000290426159
  C   -1.75110143677395     -0.67660637240392      0.00000205745614
  C   -0.40371256712935      1.31226788580523      0.00000035235598
  C   0.78392850351012      0.53018732696612     -0.00000355370905
  C   0.72253446123493     -0.84660296287277     -0.00000322396131
  C   -0.58535863458712     -1.51868521807155      0.00000021813626
  C   1.90646009014196     -1.63801753541600     -0.00000400264668
  C   3.15242063996762     -1.03499909666448      0.00000027650311
  C   3.26282046678543      0.35020853525913     -0.00000055534285
  C   2.10000554902784      1.19070556073228     -0.00001298151688
  O   4.30480808584527     -1.74556081076814      0.00000517175958
  H   4.23496811135852      0.82418935769464      0.00000523969946
  O   2.19238031942702      2.42487507084816      0.00000352567065
  H   1.79448537430122     -2.71597701324532     -0.00000300027002
  H   -2.54213710686054      1.31226142300079      0.00000458839695
  H   -0.29748771381036      2.38863744284138     -0.00000135845066
  H   -2.71022525830155     -1.17745139744143      0.00000296830863
  O   -0.66433420595444     -2.75522634013515     -0.00000344953932
  H   4.11662658964823     -2.68994546687441      0.00000482288841
