18
Coordinates from ORCA-job 1236optt
  C   -1.63515080453877      0.69855139316803      0.00000191037743
  C   -1.74056088033740     -0.68420237321746      0.00000222711355
  C   -0.39378125636641      1.30523132748816     -0.00000233053324
  C   0.79686185573453      0.51972250554829     -0.00000469030255
  C   0.73229987346328     -0.85689004207139     -0.00000440601917
  C   -0.57647485903129     -1.52807039169559     -0.00000490605367
  C   1.91585480853794     -1.64907901176313     -0.00000350601727
  C   3.14348937294164     -1.01941589169686      0.00000125189908
  C   3.27883536911967      0.35073469472434      0.00000085241178
  C   2.10925023027628      1.18996960830877     -0.00001067551231
  F   4.24500666634641     -1.77470828770006      0.00000625819695
  H   4.25307835786076      0.81965591521397      0.00000668550062
  O   2.19503045392166      2.42223498563800      0.00000542299237
  H   1.83620427978498     -2.72745344951490     -0.00000273963426
  H   -2.52947517491993      1.30730044036215      0.00000483308502
  H   -0.28569262578742      2.38129013380361     -0.00000360633916
  H   -2.70040776627765     -1.18352081620462      0.00000637317747
  O   -0.65780790072828     -2.76304074039132      0.00000104565735
