22
Coordinates from ORCA-job 1237optt
  C   2.16596818013827      0.56666668886092      1.43844845016791
  C   2.67145150328251     -0.73218963529856      1.22143756549583
  C   0.89900569082284      1.01036132623106      0.86202075447034
  C   0.16382443828998      0.03904649817013      0.04297093554096
  C   0.73515566501991     -1.20916244738930     -0.19985036953159
  C   1.97710208254725     -1.58196497596234      0.40466786789047
  C   -1.15236324966049      0.36042736736136     -0.53214842013930
  C   -1.75675335718898     -0.62963066248252     -1.40106448308552
  C   -1.15542425572619     -1.84351316400306     -1.63802617819672
  C   0.06262265869338     -2.14086639548699     -1.04575159120096
  O   0.54928195302215      2.17544247255276      1.06004434044269
  O   -1.75608253402100      1.40769685716693     -0.28707346446053
  H   -2.71488364976068     -0.36437882271858     -1.82679881560279
  H   -1.63105792561286     -2.57392651045113     -2.27958249498649
  N   2.83658479231554      1.46756938441184      2.18748174838140
  N   3.90751528464612     -1.04947909160306      1.80397438271625
  H   2.36042177687743     -2.57873500721275      0.21947717172730
  H   0.53039605716040     -3.10114071045795     -1.22430855562243
  H   2.44008359763689      2.39850690825656      2.18309651539288
  H   3.83555591400158      1.37592394159281      2.28185785176330
  H   4.18393270874793     -2.00901427675922      1.65419315683635
  H   3.94741266876803     -0.82909974477891      2.79172363200066
