19
Coordinates from ORCA-job 123optt
  C   -1.58768044104547      0.65423837877025     -0.00052765868815
  C   -1.67149557422841     -0.72131867626961      0.00005723673994
  C   -0.34955417343191      1.29865492661254     -0.00075459313621
  C   0.80275792096425      0.54167049511696     -0.00040506428564
  C   0.74445103784174     -0.86377722498641      0.00019531241353
  C   -0.50776862752539     -1.49906480226798      0.00043902917095
  C   1.97701173848340     -1.65873207188362      0.00057370155749
  C   3.27346581900544     -0.94325099021593      0.00035979394787
  C   3.34332184316012      0.38504686190891     -0.00020333162985
  C   2.12493708103958      1.23377707893215     -0.00069758294706
  H   4.15207619225570     -1.57641145740258      0.00068090681807
  H   4.28512463101497      0.91977528217969     -0.00036336292868
  O   2.22136267131453      2.43857177389119     -0.00100513092424
  O   1.96871020123913     -2.88332917351815      0.00101865058625
  H   -2.49701768409533      1.24116229485017     -0.00081087283874
  H   -0.27002171642588      2.37672078815533     -0.00121791067721
  H   -2.62468348571579     -1.23264986479892      0.00025870004295
  O   -0.64332837222323     -2.82576879338465      0.00107159953817
  H   0.25184093837252     -3.22413482568935      0.00133057724060
