31
Coordinates from ORCA-job 1244optt
  C   -1.75937005289140     -0.04492043282172     -0.04122381424907
  C   -0.29073354250175     -0.01540613307524      0.01483080888230
  C   -2.38957726764432     -1.31756531899633     -0.02807030903272
  C   -1.60930941706469     -2.51441399184501     -0.16308420488046
  C   -0.26793573994924     -2.46722259958256     -0.29066015857569
  C   0.43129058037389     -1.22431565905364     -0.17560649320954
  C   -2.57657122692417      1.08614259597843     -0.15076561282971
  C   -3.79334396289756     -1.44312901259793      0.06408152599884
  C   -4.03452947878542      0.96366320444981     -0.02889047575233
  C   -4.63310178848001     -0.36900837865688      0.11153256054101
  C   0.44621500824996      1.11437702116478      0.34787002319232
  C   1.85567565636897     -1.23357397542406     -0.17310466925704
  C   2.57220589394439     -0.11438850707013      0.07900635815332
  C   1.88545276090517      1.12252783917633      0.39108136483182
  C   -2.10311158383651      2.47079588496509     -0.46274946321227
  O   -4.73173683448373      1.98390235927733     -0.05803568439492
  H   -4.20819145881658     -2.44447511925548      0.10536240978372
  C   -6.06575830085344     -0.59554808703028      0.25895723101454
  H   -2.13376742993056     -3.46147777347730     -0.19092549588386
  H   0.30891258546339     -3.37297690308963     -0.42975093432744
  H   -0.01994032343622      2.04207908226885      0.63466348526292
  O   2.50825415289094      2.15601684947101      0.69301122793287
  H   2.35348830145418     -2.17737137061065     -0.36188593362676
  H   3.65389220972931     -0.10289362552555      0.08990879819983
  H   -1.89324127561561      3.04140955459666      0.44649148131766
  H   -2.89748314247439      3.00305436920112     -0.97946320413992
  H   -1.20584262874332      2.46072036256824     -1.07678877609633
  C   -7.04508071709098      0.30679744223049      0.32970857675542
  H   -6.33340673619620     -1.64662729039705      0.32319850355255
  H   -6.85686418355468      1.36716279151954      0.27374521066212
  H   -8.06733005720917     -0.02925517835821      0.44757566338680
