26
Coordinates from ORCA-job 1245optt
  C   1.46463414835704      1.29169302995247      1.54579756127012
  C   1.77740873059045      0.01752293511816      1.93709433297730
  C   0.58951848497548      1.57841146840857      0.43078469640805
  C   0.04015306214026      0.42218239647548     -0.30356021577469
  C   0.32093188339448     -0.87401446142155      0.15036055599483
  C   1.23265138719862     -1.07823338023767      1.23364450158772
  C   -0.83241488972017      0.59871707958823     -1.47867500768620
  C   -1.48666146479269     -0.58650916515498     -2.00426938802766
  C   -1.25092958093701     -1.82818339399687     -1.47629166699793
  C   -0.35403138859238     -1.98676364282182     -0.42228612407337
  H   1.86703583731295      2.13621974750610      2.08794822455225
  O   2.54920308188414     -0.13522580928710      3.04095110506843
  O   0.30634058169981      2.74096572715789      0.14919275806429
  O   -0.99654989013222      1.68508056710657     -2.03211480568581
  H   -2.15096051951461     -0.42822711214481     -2.84292530613331
  H   -1.75658603486326     -2.69761750755992     -1.87599675900525
  O   1.49984776193768     -2.33933741194939      1.65070440334918
  H   -0.19640053431927     -2.96612269462411      0.00635394081786
  C   3.66233941938998     -1.01522583582856      2.98003641426828
  H   4.35235999620261     -0.68253722417018      3.75187669832319
  H   4.15583963893281     -0.94214531500564      2.00742089152988
  H   3.36571502678617     -2.04502189351897      3.17270642465650
  C   2.32605436773317     -3.12820863428971      0.79406176872455
  H   3.37006278904508     -2.82802688052948      0.90054343304499
  H   2.03008467973468     -3.02524639882451     -0.25039970457588
  H   2.20715342555617     -4.16115618994815      1.11164126732262
