18
Coordinates from ORCA-job 1251optt
  C   -1.61840430608378      0.67267101224243     -0.00000152765297
  C   -1.72882686936047     -0.70688971795715      0.00000022786929
  C   -0.38462980969648      1.29570506916194      0.00000097636495
  C   0.80354911306360      0.51078006879054      0.00000178393785
  C   0.75051297770281     -0.86541590155813      0.00000186611316
  C   -0.55649812096595     -1.54160341636573      0.00000295685751
  C   1.93869206745023     -1.65034084721381     -0.00000011114216
  C   3.17246673236921     -1.02730670508655     -0.00000173258282
  C   3.28288895200551      0.35225410145253     -0.00000020154436
  C   2.11056000860230      1.18696751262281      0.00000142328980
  Cl  4.60639130508936     -1.99047622796840     -0.00000607193789
  H   4.24666550159027      0.84239812311602     -0.00000035179786
  O   2.19240270717958      2.41973408462316      0.00000409336163
  H   1.84828844460673     -2.72782472964120     -0.00000048835194
  Cl  -3.05232716259916      1.63584198683258     -0.00000761107872
  H   -0.29422626193915      2.37318899545108      0.00000102873887
  H   -2.69260366300106     -1.19703348994486     -0.00000066494178
  O   -0.63834161601358     -2.77436991855727      0.00000440449740
