20
Coordinates from ORCA-job 1262optt
  C   2.20989186705495      0.53227399722638      1.46528661193180
  C   2.69235831081656     -0.76166266000964      1.23398711727863
  C   0.94636480879704      0.99249812317433      0.87037608282828
  C   0.21556764830907      0.02795136694625      0.04035214619347
  C   0.74618355019323     -1.24759931838186     -0.16416360999940
  C   1.98436280851316     -1.62270545088553      0.44243090779539
  C   -1.07406587525980      0.38125934496248     -0.58550924030089
  C   -1.71070600194065     -0.62531829422400     -1.40841017717217
  C   -1.15299951752964     -1.87026969144088     -1.59330069679749
  C   0.05043702102645     -2.18554231263430     -0.98454002115490
  O   0.58435662164524      2.14693576422033      1.09749646068445
  O   -1.61721574019278      1.47706198838213     -0.42814591534672
  H   -2.65090767636196     -0.33995940059501     -1.86037938524252
  H   -1.65104175449152     -2.60636889597113     -2.21081471144657
  N   2.84216173239386      1.44114050823476      2.22214886033732
  H   3.62782353243314     -1.07191367597373      1.68388551004738
  H   2.36035685323576     -2.62173364775874      0.26216708217452
  H   0.48981420647991     -3.16517384529888     -1.12604756254646
  H   2.40452022906637      2.34655105806493      2.31281236953235
  H   3.71772737581159      1.24910504196211      2.67246817120353
