18
Coordinates from ORCA-job 1263optt
  C   -1.61435767887616      0.71738270474987      0.00001005834723
  C   -1.73074300395385     -0.67044649384509      0.00000939269159
  C   -0.37172101753346      1.30456543473208     -0.00002244086065
  C   0.81378177250113      0.50941301496443     -0.00003825842690
  C   0.74027813289341     -0.86404516845898     -0.00003744816555
  C   -0.56704718588940     -1.54132610837378     -0.00006099140507
  C   1.92578082105684     -1.65919754722818     -0.00002500657583
  C   3.16841765882483     -1.07201493645411      0.00000831319355
  C   3.28480329724486      0.31581424894466      0.00000704139578
  C   2.12110740155441      1.18669375605550     -0.00007604347082
  H   4.06541973546651     -1.67595483944022      0.00004018265073
  Cl  4.81703926568294      1.04804679959292      0.00006489662744
  O   2.20975121756804      2.41248114615573      0.00003790236057
  H   1.81285351701896     -2.73460488967027     -0.00002247256137
  H   -2.51135997380333      1.32132238060528      0.00003828249425
  H   -0.25879390993317      2.37997286090739     -0.00002470753185
  Cl  -3.26297867048770     -1.40267884582475      0.00006173404802
  O   -0.65569137933487     -2.76711351741249      0.00002956518887
