26
Coordinates from ORCA-job 126optt
  C   -1.52642951864456      0.74627007638849     -0.04094306613515
  C   -1.79462782898922     -0.58366522181601     -0.01289341124208
  C   -0.19876973112589      1.29196459799186     -0.04020125486990
  C   0.89008331951348      0.48975936274476     -0.01016009728623
  C   0.71811533183808     -0.93594848727150      0.02043830839702
  C   -0.64675119043584     -1.53746585021511      0.01892701872920
  C   1.80696637481081     -1.73815276808987      0.05056042832266
  C   3.13462533912887     -1.19245729749939      0.05139995256537
  C   3.40282460622355      0.13747653611824      0.02329136198453
  C   2.25495078271755      1.09127461615766     -0.00874441151258
  H   3.96616220814149     -1.88786567159669      0.07514140426695
  C   4.79173080518789      0.58552189327638      0.02516943889389
  O   2.40501098432152      2.29550065059640     -0.03277546488395
  H   1.66556276796636     -2.81154840022531      0.07360999634215
  H   -2.35796750084705      1.44168130126986     -0.06456560902882
  H   -0.05736715635427      2.36536085357168     -0.06322962628311
  C   -3.18353488252769     -1.03171033975571     -0.01464996230354
  O   -0.79681194927681     -2.74168901272797      0.04310335459030
  C   5.25552228846857      1.83457802493608      0.00136250073071
  H   5.51018722239647     -0.22909356516780      0.04906666121391
  H   4.60317084842813      2.69282123642636     -0.02245388885863
  H   6.32488908446466      2.00231527489774      0.00639018384446
  C   -3.64732237884758     -2.28077257368047      0.00892005265463
  H   -3.90199331620830     -0.21708811270671     -0.03825329524409
  H   -2.99496625100918     -3.13902017804429      0.03243689629002
  H   -4.71669025934107     -2.44850694557867      0.00400252882234
