38
Coordinates from ORCA-job 1283optt
  C   -1.10504136489922      1.65652310908996      0.92350717592933
  C   -2.06882510909864      0.69591374254978      0.39019908516266
  C   0.25118426480928      1.45400335606850      0.78279474478706
  C   0.74092095883503      0.29625248389834      0.17247658611217
  C   -0.13559468516583     -0.68399705895497     -0.29562839437230
  C   -1.50123016196823     -0.52335292693912     -0.18152520800510
  H   0.23645832156776     -1.57765732629195     -0.77757799930575
  O   -3.29219734893632      0.92908011877961      0.37275228322546
  C   2.20488591891407      0.09985118294257      0.03821940681573
  C   2.75812481497373     -1.16607518447613      0.24720861010744
  C   3.01584359941371      1.17843773317098     -0.31924856448953
  C   4.37913585576261      1.01988064041969     -0.46014941241757
  C   5.01876250192340     -0.26541474041826     -0.18624402779500
  C   4.11537556791343     -1.37229818465990      0.12131356325438
  H   2.13624899523500     -2.00352794059957      0.53233792859449
  H   2.58840899709620      2.15108472686436     -0.52115731623525
  O   6.25714707571608     -0.39639720990345     -0.16005940391147
  O   -1.48264855017806      2.79623700339898      1.50684094589545
  O   -2.25741497346254     -1.49951608595240     -0.68687979404564
  O   5.07258600570727      2.10882088811831     -0.79600720661443
  O   4.55805153118402     -2.60653183904483      0.37268844742529
  C   -2.78299779632795      2.97935288599842      2.06508428712059
  C   -3.64172057314864     -1.64601337523616     -0.37373333166430
  C   5.83332538678196     -3.06835037573439     -0.07033818190329
  C   6.40746158725415      2.05325309247595     -1.29654654854406
  H   -2.67852374507270      3.82398690381138      2.74181169864901
  H   -3.09733137896978      2.09407787074752      2.61566591151757
  H   -3.51384652991110      3.19544692364280      1.29099833708057
  H   -3.88742444862645     -2.66139549427593     -0.67481439479983
  H   -4.24442273324416     -0.92667793648784     -0.92102514825318
  H   -3.81469486803250     -1.51721767730416      0.69336323333901
  H   5.76648122763111     -4.15274901204624     -0.02776345260683
  H   6.62682539509463     -2.70664629397717      0.57739603508328
  H   6.03047278282794     -2.74405848104822     -1.09093642289944
  H   6.57302726974353      3.02700129413471     -1.75095147155323
  H   6.51035039373593      1.26723147476571     -2.04273119100388
  H   7.11867324312757      1.87801575322635     -0.49427585680360
  H   0.92641257179360      2.19824595924675      1.18234504712422
