26
Coordinates from ORCA-job 1284optt
  C   0.29381967852926      2.38523753844137      1.74924960307470
  C   1.50684585997258      1.78493476176831      1.91683508037644
  C   -0.76906554503764      1.78659055654050      0.96861968800767
  C   -0.41410319305186      0.57739199871492      0.20277625869860
  C   0.83523242126346     -0.03529854189698      0.39100047315441
  C   1.78450801269000      0.55918946135253      1.29151521988364
  C   -1.35919387108578      0.01383733828299     -0.77783716298199
  C   -1.00757697874075     -1.24848908140331     -1.39937276384564
  C   0.21788777120203     -1.82117273081177     -1.19009540398406
  C   1.13877886629059     -1.22168607047874     -0.33371004749136
  O   -1.90529374061307      2.25232171826471      0.99309588563344
  O   -2.39117020362537      0.59244718976671     -1.11579860808054
  H   -1.73612516599208     -1.66502067006111     -2.08135249173625
  H   0.49299912548103     -2.73134609010844     -1.70687994352648
  N   2.96004180190196     -0.14216438777567      1.54425797475680
  H   2.11913804294926     -1.67261799785843     -0.26116349089695
  C   4.14578735023864      0.38242420554627      2.02627611941243
  O   4.34239679727211      1.54278126458278      2.23505071632629
  O   5.12024270816877     -0.51908172462176      2.25040965508985
  C   4.94445015072288     -1.90379193383273      2.00844563241737
  H   5.88307954398898     -2.37520023592880      2.28331295258634
  H   4.75181621236332     -2.10112090716707      0.95017777701177
  H   4.14668948140659     -2.31953255944260      2.62867482466547
  H   0.04789079956101      3.30603560170365      2.26051014741682
  H   2.25757372442462      2.22757807290315      2.55191418389735
  H   2.92522034971941     -1.13052677648052      1.37188772013384
