22
Coordinates from ORCA-job 1287optt
  C   -1.48476814500845      0.50771990327533      0.00739956948500
  C   -1.53229643696026     -0.87810546178925      0.00487104464451
  C   -0.26945701755715      1.16546714374832      0.00551294082174
  C   0.95265864740731      0.42935144083695      0.00121405221767
  C   0.94914364061964     -0.94968979901195     -0.00130774352784
  C   -0.33348643851835     -1.67376553629708      0.00007004626131
  C   2.16465505614806     -1.68659941748036     -0.00594623963509
  C   3.40233864156879     -1.04707232792891     -0.00599860499890
  C   3.42943565220097      0.34295267280522     -0.00519891598930
  C   2.23616841310532      1.14381837753228     -0.00108857566711
  C   4.67568379266845     -1.78699880420952     -0.00790089702444
  H   4.36944013695499      0.88140485448044     -0.00709249834520
  O   2.27870716701781      2.38125322339309      0.00012246974594
  H   2.08262431278664     -2.76486678342037     -0.01118483310249
  H   -2.40393075467097      1.07857317510760      0.01091934957211
  H   -0.20549485568814      2.24507003590239      0.00734525927431
  H   -2.47063631394112     -1.41682844050905      0.00637794288957
  O   -0.36892944557938     -2.91072491011749     -0.00243291620441
  C   4.81729273646230     -3.10630643605764      0.02236305677377
  H   5.56406117406786     -1.16438620554406     -0.03402209427552
  H   3.97420781974702     -3.78467852437694      0.05250453528442
  H   5.80126221716865     -3.55446818033898      0.01877305179997
