18
Coordinates from ORCA-job 1290optt
  C   -1.65582413122595      0.70624159193040     -0.00004829903728
  C   -1.75778966168839     -0.67622059585096     -0.00003803313696
  C   -0.41574108072542      1.31657417366648      0.00001486328880
  C   0.77620271896146      0.53354442562553      0.00008026480190
  C   0.71685213418628     -0.84302859357662      0.00007636755927
  C   -0.59115212235193     -1.51812205196223      0.00004228053978
  C   1.90338138618684     -1.63207217793980      0.00007728874406
  C   3.14001945534265     -1.01370394572309     -0.00000800084750
  C   3.25667444138039      0.36418780044915      0.00000480065683
  C   2.08629830067996      1.20282082297772      0.00025027681774
  Cl  4.57052012398477     -1.98430815419899     -0.00016249039646
  H   4.22225476175195      0.85067533094097     -0.00010648304092
  O   2.17525322367204      2.43554967907082     -0.00010946008283
  H   1.80932071369036     -2.70923173471142      0.00005027974867
  H   -2.55179630371616      1.31267166900999     -0.00009025873977
  H   -0.31004706151500      2.39284542306774      0.00004318889245
  H   -2.71652923660078     -1.17769321538474     -0.00008595079379
  O   -0.67137766201312     -2.75243044739091      0.00000936502601
