20
Coordinates from ORCA-job 1292optt
  C   -2.11729618912374      0.10929213258211      0.04989565619898
  C   -2.26510978753333     -1.36312820711181     -0.05113346019332
  C   -0.79816697053750      0.67271828048594      0.34874625042754
  C   0.34818242796120     -0.23365002927197      0.16993585202508
  C   0.21872484183529     -1.51707619509752     -0.18014679137848
  C   -1.08564559985530     -2.17641897091595     -0.35805184424372
  C   -3.21371327067118      0.92642460114103     -0.26436509468059
  C   -3.49890578289577     -1.94780326822707      0.27166256597587
  O   -0.61475514752230      1.84287286326002      0.66247294217861
  H   1.31951127343219      0.22383458351945      0.31451780321141
  H   1.07903366446886     -2.15897978998410     -0.32691754452579
  O   -1.13974296732053     -3.35802623659052     -0.67709273005026
  C   -3.26884208086700      2.29598280447089     -0.22814540699496
  H   -4.10667145869985      0.41536618360323     -0.60679130461826
  H   -2.42494572052065      2.89291934335792      0.07633454336886
  H   -4.18612844920407      2.79204004428531     -0.51376747951122
  C   -3.82388356682635     -3.27951887086286      0.23659287115484
  H   -4.27078183691157     -1.27076779812136      0.62047104123451
  H   -3.11678650081661     -4.03129796204705     -0.07329052339978
  H   -4.81903687839165     -3.58477350847567      0.52906265382068
