30
Coordinates from ORCA-job 1300optt
  C   -2.00015770773216     -0.00931420611952     -0.47198113770817
  C   -1.87007689552363     -1.37866044266857     -0.65272566406625
  C   -0.87891293748909      0.77690119336076     -0.26201185650472
  C   0.41512313450491      0.18714135197430     -0.18020317216735
  C   0.58502462955894     -1.17161970002801     -0.34827053522705
  C   -0.58474884169305     -2.02595366217844     -0.60873695290905
  C   1.88014296507693     -1.75959197006559     -0.27387428159206
  C   2.99269105981834     -0.97513604274485     -0.02783804414313
  C   2.86593585497538      0.39769248230628      0.14818877300805
  C   1.58284687080677      1.04358448906906      0.08244323880964
  C   4.32160662036529     -1.66050088833048      0.04296815038137
  H   3.72651588010408      1.02226201878382      0.34161444013863
  O   1.45760898329231      2.26293668111693      0.24301783484942
  H   1.98398093656131     -2.82779143914691     -0.41098300233314
  C   -3.32665598998585      0.68738213675855     -0.61145064366536
  H   -0.96840653893161      1.85078346603404     -0.16381351726501
  H   -2.72257998633107     -2.01269296780582     -0.85797650434340
  O   -0.46663832555120     -3.24435204854330     -0.77381345788578
  O   4.46993149198477     -2.84178187598841     -0.10418792795592
  O   5.31746981824233     -0.80869412989148      0.28963278311353
  C   6.61670472334473     -1.39858817960443      0.37143211075897
  H   7.30115508926034     -0.58008962939967      0.56877425332480
  H   6.86327146862150     -1.89192208569549     -0.56710211680946
  H   6.64496201460151     -2.13000144586540      1.17724688250748
  O   -3.42779035190949      1.70501749593765     -1.22793140480233
  O   -4.41061855531980      0.11828939072964     -0.06251000201260
  C   -4.32231059114847     -0.79290699919853      1.03052097790175
  H   -4.39891285087805     -1.82033865745983      0.67693137720279
  H   -5.16772441697492     -0.57166086619533      1.67694967948463
  H   -3.39698755165105     -0.66373346914095      1.58989971990975
