24
Coordinates from ORCA-job 1302optt
  C   0.21062685756246      2.97553976155663      0.93065340558960
  C   1.18550060590846      2.31902793774590      1.62255046906826
  C   -0.54349131340104      2.31383236758837     -0.11832048738870
  C   -0.33457103762462      0.86353516709594     -0.27399919261752
  C   0.71474101056492      0.22007909201753      0.40878683673163
  C   1.48760701708643      0.97314426463751      1.35974604372514
  C   -1.23420711929067      0.08762366862189     -1.14608608156353
  C   -0.87865322939033     -1.29296229352737     -1.40057175350418
  C   0.17118535658499     -1.88021286812021     -0.75099466737134
  C   0.95066385374551     -1.15997823914082      0.15554171981244
  C   2.64122999129586      0.36820692342662      2.08701879169611
  O   -1.27041020216702      2.96876189255210     -0.85897457522286
  O   -2.27592133215121      0.55654940453721     -1.60458577576003
  H   -1.52114988760286     -1.83542774182521     -2.08082849098128
  H   0.40249711826378     -2.92369816301258     -0.92115781799443
  H   1.76184736064979     -1.65220792853029      0.66497914217654
  O   3.27401333740382     -0.59081453941477      1.72706331248254
  O   2.92786909440158      1.03786409373577      3.20921451348658
  C   4.04731286538879      0.54322178675706      3.94484810945710
  H   4.14193645023757      1.19254786872437      4.80922769867061
  H   4.94649577010847      0.58046977846602      3.33215219910661
  H   3.86939827390149     -0.48565394594168      4.25305078171602
  H   0.00369370263995      4.02618970029555      1.08204145265716
  H   1.76659545588385      2.84010201175446      2.36923436602747
