24
Coordinates from ORCA-job 1315optt
  C   -1.64210360888273      0.61314060884858     -0.00000874894393
  C   -1.73229321449308     -0.76774047020690      0.00000297850688
  C   -0.37864416987224      1.20028627159930     -0.00004769088678
  C   0.80841142494817      0.41678856589474     -0.00005814042535
  C   0.74233281588451     -0.95876102786655     -0.00004611200470
  C   -0.57066261284932     -1.61815814190965     -0.00003751884808
  C   1.93485602912586     -1.74529918890677     -0.00002757587638
  C   3.17086479181969     -1.14157041728344     -0.00000571808353
  C   3.30328874187369      0.24842496278629     -0.00001343257122
  C   2.11880235577341      1.08577279395134     -0.00006735539172
  H   4.06511647827949     -1.75296582723834      0.00002393096626
  C   4.62751311239773      0.92739010329578      0.00003178390091
  O   2.20587510237198      2.31927654534821     -0.00001425023464
  H   1.82707293388842     -2.82144400610600     -0.00001642641910
  C   -2.87234693419641      1.47795195011992      0.00002652409444
  H   -0.26618785096474      2.27756763544009     -0.00005471545005
  H   -2.69296588115411     -1.26817602170600      0.00004343241492
  O   -0.66305740134540     -2.85269048745813      0.00003128486308
  H   5.44309050279490      0.20736350627442      0.00007328323476
  H   4.71708402667911      1.57915016248329      0.87138878700142
  H   4.71715408978315      1.57913049492469     -0.87133262184130
  H   -3.77789896643678      0.87434781974153      0.00005989876083
  H   -2.88945487093178      2.12301803128054     -0.87940519157046
  H   -2.88939689449354      2.12302613669306      0.87945359480371
