26
Coordinates from ORCA-job 1319optt
  C   2.05830039018993      2.22017508919895      0.86893962762878
  C   2.82070737619978      1.11540779973694      1.29715237664534
  C   0.79387265469836      1.98377921109142      0.14515529565691
  C   0.28242923483561      0.60032624391904      0.07659004836928
  C   1.10232424407257     -0.45358781311792      0.47989882145045
  C   2.36207925049584     -0.17067776228953      1.08261033333195
  C   -1.07084268237493      0.31053668841744     -0.42697645186845
  C   -1.41566002549829     -1.08671142123358     -0.62112656037030
  C   -0.56484747570789     -2.09615478002692     -0.25139875379579
  C   0.67282327316837     -1.79563739416251      0.31231322023830
  C   2.55887601860357      3.56335698965006      1.05957887326376
  C   4.10608930565902      1.30011143004461      2.00618193101528
  O   0.22084031602229      2.89201424353099     -0.44381830660301
  H   2.95457906327790     -1.00377971577529      1.44070527909833
  O   -1.91380545169785      1.18460332720176     -0.63261291982788
  H   -2.39908282496477     -1.27895065999685     -1.02830086588488
  H   -0.85578772091922     -3.13063804364194     -0.37970729540271
  H   1.33496621899427     -2.59275473043859      0.62615468084318
  C   1.86834107460744      4.70865669471787      0.97221647452756
  H   3.60926729791961      3.63335658816715      1.31743835893556
  H   0.81717597595341      4.73707404309767      0.73211315121892
  H   2.37387481887290      5.64881346475463      1.15126165202533
  C   5.19304876805429      0.57679520493809      1.77173984250325
  H   4.13614798261725      2.07254401029184      2.76684194517857
  H   5.21278634178663     -0.18204924685406      0.99807869263542
  H   6.10228657513384      0.73170053877870      2.33674054918679
