34
Coordinates from ORCA-job 1324optt
  C   1.17594526915838      1.99433782913818      1.33739664490806
  C   2.09692755509766      1.02618233793564      1.02896545393128
  C   -0.12643903971137      2.03812752927120      0.71007932290887
  C   -0.42102014476416      1.03313447368515     -0.32809139047155
  C   0.50690576429257      0.00572265875119     -0.55545539535061
  C   1.77573315584763      0.04720650804748      0.07809449438682
  C   -1.65246251772648      1.11404859901505     -1.13280712526188
  C   -1.90532285498765      0.00437833707986     -2.02907195941867
  C   -1.03321509714471     -1.03282175841502     -2.17976400886224
  C   0.17140659003772     -1.06153400676092     -1.45785770801042
  O   -0.95708856817532      2.86045140459419      1.09202869364925
  O   -2.41456485730351      2.07686441831608     -1.09170522462559
  N   3.36169643392832      1.08490778222785      1.63558702926842
  C   4.23217015874024      0.08753107209433      1.99864084145650
  O   5.23444985487557      0.30006196210391      2.62825219548068
  O   3.84878829041646     -1.12706021608930      1.58260580485747
  C   4.72555868040567     -2.18708296105231      1.97525842654809
  H   4.78521227437600     -2.24235544912280      3.06021424251605
  H   5.72122299066464     -2.02182292942291      1.56888560459480
  H   4.28875795342142     -3.09425734121315      1.56874546644762
  H   2.55155530724306     -0.64235352929888     -0.20787451899968
  H   2.46866633710608     -4.69192499056274     -4.07804395936908
  O   0.39458539862000     -3.19690609061084     -3.47777871290227
  C   2.20471698497538     -5.07738135379203     -3.09496847882050
  C   1.08502976797129     -3.11974320131889     -2.49938858320446
  O   2.04218922772874     -4.00093055195385     -2.16990019090244
  H   3.00660997832365     -5.68926451948847     -2.69468256052997
  N   1.05015319803113     -2.13011401715781     -1.54283119090922
  H   1.28312741778141     -5.65155789153502     -3.16987321554797
  H   -2.82805582558182      0.04874409787681     -2.59153138016495
  H   -1.25401811546211     -1.84381246803884     -2.85551024563290
  H   1.72215227106927     -2.24925639866462     -0.80159398160282
  H   1.36912326244333      2.74952554152874      2.08868742995000
  H   3.61554289830138      1.96757512283279      2.05227817968328
