30
Coordinates from ORCA-job 1329optt
  C   -1.13149995472579      0.29597343147491      0.60395259444833
  C   -1.50686223764614     -0.93434875384393      0.08331163568105
  C   0.17888697241628      0.72960525964175      0.53354889106676
  C   1.17706397662083     -0.07729846014143     -0.08677762334525
  C   0.84680835209930     -1.28689204755991     -0.65186906996047
  C   -0.54628110566964     -1.77314261672665     -0.61217145950010
  C   1.83662137071248     -2.07673732673598     -1.31263974937146
  C   3.14725519588410     -1.65222688293419     -1.37589374003085
  C   3.53472159045902     -0.45957291048914     -0.77633469815094
  C   2.56759224042777      0.39979795169586     -0.13035628568423
  H   3.89015512229817     -2.24207058597524     -1.89694193477935
  C   4.96086641990394     -0.00899550856818     -0.93118226435098
  O   2.88277211744879      1.49253159156189      0.35233986649057
  H   1.52027187976283     -3.00803984682219     -1.76205451188803
  H   -1.88066312366745      0.91277729145092      1.08157185055883
  H   0.48118662539209      1.68210334392001      0.94647692987105
  C   -2.90116356341618     -1.43277877083611      0.27158012162596
  O   -0.85466220129851     -2.81799322589279     -1.18165221339934
  O   5.43234459865198      0.09154302929546     -2.02677103102632
  O   5.69379951371526      0.24073719151722      0.15056282161682
  C   5.20485019734049     -0.00091166468062      1.46768741180419
  O   -3.19047224216570     -2.56651166069203      0.52003618668913
  O   -3.79003501324113     -0.43466773944556      0.17580372931737
  C   -5.14956029974584     -0.81894469516482      0.38958424525281
  H   6.08466387293985     -0.16595775947130      2.08295341887935
  H   4.57286807504752     -0.88962206279661      1.49971594011103
  H   4.64934728395784      0.86402962952132      1.82224786166160
  H   -5.44552809343914     -1.56987736501149     -0.34095673309035
  H   -5.73571058742557      0.08662517416540      0.27073374555880
  H   -5.27079698263749     -1.23038401045653      1.39051406394406
