36
Coordinates from ORCA-job 132optt
  C   1.78910431098294      2.32018049085459      0.60621273549399
  C   2.76574989072221      1.36658876318030      0.74082752325279
  C   0.34674689420605      1.92941896923598      0.53457144719196
  C   0.07016325005646      0.51851414684044      0.62135160609489
  C   1.12290139571692     -0.42315987739680      0.76136998694540
  C   2.49207963224289     -0.00554387004909      0.82092746286833
  C   -1.30732853924099      0.05896177232285      0.56567132394056
  C   -1.50253181455750     -1.40010836481438      0.66144654166402
  C   -0.47636601964322     -2.27829646522388      0.79553754397041
  C   0.84160581955719     -1.79151624408775      0.84610700605806
  C   2.16672391968486      3.76688252429460      0.52950127502037
  H   3.80010177402444      1.68933259241423      0.78792222330123
  O   -0.49150781326823      2.81457824116044      0.41054198850718
  C   3.69828390926926     -0.91398998387712      0.96366869204929
  O   -2.30146384711863      0.76521089919019      0.44815156890683
  H   -2.53439403465763     -1.72848025609817      0.61728336472820
  H   -0.65651043412779     -3.34338042404171      0.86350209763444
  H   1.64473859878174     -2.50016395493891      0.95286714305773
  C   1.75883015726882      4.38645182360724     -0.81578497984660
  H   2.17326630617361      3.82239016702380     -1.65240944805709
  H   2.14629984539664      5.40491617402326     -0.86707121468358
  H   0.67576824141982      4.40928401113627     -0.90665083360046
  C   1.58076741125888      4.56592564126130      1.70349238960098
  H   3.25708953038875      3.81170241654217      0.60338623055342
  H   1.96954760031355      5.58448459768608      1.66629015605854
  H   1.86593037916892      4.12797420084492      2.66097915967445
  H   0.49604674978978      4.59288294112458      1.63636137540248
  C   3.76494684926831     -1.65588503275368      2.30652808662748
  H   3.60285155829506     -0.96919282041192      3.13757457186515
  H   4.75561045935282     -2.09832999617054      2.41939799294947
  H   3.03153745838265     -2.45553198245839      2.38709409204027
  C   3.92378114223246     -1.84324691841171     -0.23783534348506
  H   4.55109858729064     -0.23248941763461      0.96698383504604
  H   4.91799571819804     -2.28584111563235     -0.16326865808543
  H   3.86870818692830     -1.28720398182292     -1.17391529398463
  H   3.20055692624178     -2.65453966691930     -0.28909364876115
