26
Coordinates from ORCA-job 1335optt
  C   2.49735282013921      0.40390804042180      1.29625268950182
  C   2.75047155388728     -0.94720090527618      1.08937047764205
  C   1.36139845155307      1.04554916378834      0.63551165866045
  C   0.38754256355215      0.13717066851242      0.00203089984093
  C   0.69866076118220     -1.20265435547859     -0.22566971550632
  C   1.92442639465021     -1.74470612686282      0.31685789722019
  C   -0.92333264051058      0.66244407356224     -0.42079431859546
  C   -1.75232089654982     -0.19958768657418     -1.23745334775288
  C   -1.38802904536702     -1.49566677276298     -1.49331906689274
  C   -0.19818147823902     -2.00687032561939     -0.98291548621858
  O   1.26519915409807      2.26471958523456      0.55541095227284
  O   -1.34785790464802      1.75912994792976     -0.05391132086279
  H   -2.68969022178533      0.21926203674954     -1.57748544524894
  H   -2.03130691320852     -2.13966583269864     -2.07858187940481
  S   3.67247501563389      1.29541932156757      2.19998829464379
  H   3.63144034145205     -1.36835141866507      1.55362418224508
  S   2.25304627098101     -3.42647228209112      0.00148294594261
  H   0.05180612237875     -3.03967638897109     -1.18168168665218
  C   2.80599640755203      2.74465518211600      2.83992191733836
  H   2.71079161227605      3.51184312362455      2.08107029754936
  H   3.42029327709564      3.08992430636006      3.66974903039416
  H   1.82229566835187      2.46213056676817      3.20504672194695
  C   3.82037647133375     -3.70820045971033      0.82849866967617
  H   4.59914772772570     -3.06551907770842      0.42239512861852
  H   4.07024917306966     -4.74682107294691      0.62311103861181
  H   3.73000931339569     -3.56918331126932      1.90405946502957
