20
Coordinates from ORCA-job 1340optt
  C   1.65238065482510      1.27333449295750      1.61126213527017
  C   2.20742073940146      0.02643363637310      1.85748353470765
  C   0.58708331028841      1.47306276066278      0.62846889584125
  C   0.11550735424398      0.29122116397606     -0.09270463375253
  C   0.70581628174256     -0.94825685647957      0.17652040477845
  C   1.74428122451323     -1.05900813404810      1.15340940985144
  C   -0.96678476262222      0.37605529291542     -1.09459962073287
  C   -1.34491031636221     -0.84379789148893     -1.77159490500782
  C   -0.73781795834807     -2.03796791453733     -1.48638128629680
  C   0.27377111447842     -2.10416302078671     -0.52273044328336
  O   2.05871111048407      2.35952211569009      2.24982380654455
  H   2.99322946535901     -0.06963344959081      2.59430388045384
  O   0.17267933695379      2.62602190426780      0.48307684196079
  O   -1.54099700377739      1.43281815145180     -1.35359082481844
  H   -2.13574997180295     -0.75930403321017     -2.50691361041213
  O   -1.06102874368415     -3.20649001582638     -2.09278847381976
  H   2.17007167493304     -2.03763250095537      1.33389528252276
  H   0.73010837122925     -3.06356804939723     -0.31634840905366
  H   1.51845603129570      3.09336214458668      1.89485304229648
  H   -1.76525791315103     -3.06316979656066     -2.73362502704999
