24
Coordinates from ORCA-job 1344optt
  C   -0.77285726268502      0.01880989740616      0.00000093418676
  C   0.68704588958102      0.02909142185529      0.00000038392719
  C   -1.45011896943350     -1.22163765729817     -0.00000349405456
  C   -0.70251141815166     -2.43938642503651     -0.00000179586594
  C   0.65126898853831     -2.42985073635208      0.00000211955013
  C   1.38170127951595     -1.20170020575300      0.00000314148365
  C   -1.53248107976155      1.18555572964049      0.00000553532113
  C   -2.87798980185573     -1.26644801588925     -0.00000297943634
  C   -2.97040408717395      1.16246819560329     -0.00000210272622
  C   -3.61921452905672     -0.13737929177680     -0.00000023548907
  C   1.43011486839604      1.20644897021680     -0.00000487670284
  C   2.81004115630033     -1.22635373474751      0.00000293468033
  C   3.53527350671510     -0.08696303330665     -0.00000040633653
  C   2.86821505774691      1.20365096139376      0.00000157490854
  H   -1.08345222184017      2.16870089414803      0.00001134589559
  O   -3.62722140544463      2.21774099687525      0.00000491833506
  H   -3.35386659111770     -2.23997655932396     -0.00000636589671
  H   -4.70095661031575     -0.15082209974757      0.00000085534443
  H   -1.24578496969926     -3.37624986334424     -0.00000277588893
  H   1.20766634803352     -3.35897712331129      0.00000338364243
  H   0.96721061250422      2.18314448591435     -0.00001037011399
  O   3.51000287898048      2.26811207724164     -0.00000598976607
  H   3.29960865085019     -2.19307813286233      0.00000532973159
  H   4.61709970937359     -0.08521075154571     -0.00000106472965
