38
Coordinates from ORCA-job 145optt
  C   -0.45438847890630     -0.90047212223638      0.40137569252684
  C   0.69036589920815     -1.46471771044251      0.79800734857644
  C   -0.51128617097886      0.42198818711537     -0.21088787993544
  C   0.63580333523806      1.14067470127471     -0.37818057761363
  C   1.90093153689883      0.64698180322933      0.15903966834951
  C   1.97585828192118     -0.77435889207411      0.61996256142593
  C   2.99032484537922      1.46492057262210      0.22192819692555
  C   2.92869160291217      2.79922963800256     -0.36292793447528
  C   1.84149678757518      3.26513394169301     -0.98516337177033
  C   0.63446172196630      2.43748038786477     -1.12433536490947
  O   -0.27417837937164      2.79125995289656     -1.84637057942308
  H   -1.39546589319441     -1.42380364622435      0.52209525004864
  H   0.73313176419442     -2.45795831874156      1.22535170499497
  O   3.02130500531141     -1.36297921265942      0.80053711898213
  C   -1.87518854687294      0.89205231646389     -0.55147003488019
  C   4.26509969624841      1.13927966120288      0.90444892502095
  C   4.28882276674500      0.81427629884431      2.25951527766952
  C   5.46825393137603      1.24882462873467      0.21242237512519
  C   6.67373017263978      0.99875676157398      0.85365784017719
  C   5.49170701697867      0.58422392266528      2.90306627509477
  C   6.68828950049845      0.66870661388202      2.20023052833938
  H   3.35561545203391      0.73861282254769      2.80370432947422
  H   5.49784956997132      0.33577550556889      3.95625597246056
  H   7.60082246587152      1.06622265111214      0.29965651124217
  H   7.62768009188987      0.48164300150022      2.70364938518355
  H   5.45913164431563      1.50670825522892     -0.84002958891639
  H   1.80731630495934      4.24452184890957     -1.44409906915222
  H   3.81830945868282      3.41197811855279     -0.27745970491406
  C   -2.39306684275582      2.05922529002180      0.00680620884724
  C   -2.69081527350357      0.10978896529154     -1.36488708869014
  C   -3.69489082735768      2.44447195688312     -0.25969850528469
  C   -3.99059783243012      0.50659579597140     -1.64764427305836
  C   -4.49606888132761      1.67271767302523     -1.09378288382187
  H   -4.08724813025178      3.35108430098039      0.18197168069778
  H   -5.51180541725796      1.97929076342165     -1.30631092171774
  H   -1.76524402583795      2.66513289305365      0.64821649985635
  H   -2.29809760052251     -0.80271607302261     -1.79776157523093
  H   -4.60776655224657     -0.09939325473357     -2.29791999722506
