18
Coordinates from ORCA-job 147optt
  C   -1.63439036494631      0.68558347510891      0.00004454989816
  C   -1.77656141562450     -0.64726909790638      0.00003759786387
  C   -0.32557222025631      1.28973924524807     -0.00006701017266
  C   0.79989147642832      0.54343758713795     -0.00014451401731
  C   0.73248986791821     -0.90842381309520     -0.00014137343412
  C   -0.61613523628226     -1.55572434199752     -0.00017462255188
  C   1.90136308329498     -1.60263951819411     -0.00009020357959
  C   3.19557410832248     -0.93447181283824      0.00003110640288
  C   3.30824578808798      0.39703195563376      0.00002475711297
  C   2.11264674537801      1.25348459656968     -0.00025129448976
  H   4.07006018700442     -1.57200378702376      0.00015502149150
  H   4.26875094542840      0.89488341078891      0.00016283790632
  O   2.19929782679495      2.46306168710627      0.00012619508165
  Cl  2.00476297934399     -3.30801544792775     -0.00001729034364
  H   -2.50366837991593      1.33102644046119      0.00014664163617
  H   -0.22374613829668      2.36778593200198     -0.00006338201447
  H   -2.74428754399957     -1.13125313882889      0.00014911314626
  O   -0.78217170868024     -2.75793337224487      0.00007187006363
