23
Coordinates from ORCA-job 152optt
  C   -0.94169684441566     -0.14489676250062      0.09007413447164
  C   -0.69897769970383     -1.44256121361697     -0.20118805591791
  C   0.13272938754536      0.75049315907615      0.34359429477201
  C   1.41727803502215      0.31188557370121      0.29067873635071
  C   1.73759052736568     -1.07085507227722      0.03372901500752
  C   0.63723999025205     -1.98666162532120     -0.19931134842128
  C   3.08499406056934     -1.40650080040428     -0.18904232484366
  C   4.06834605558977     -0.32332639312859     -0.37432800126226
  C   3.81804246013900      0.94464751069077     -0.06249909317712
  C   2.48282611001857      1.34301268898419      0.42301153942719
  N   3.66309589663776     -2.61944736627585     -0.29417774973328
  H   4.57402843659144      1.71646691219019     -0.12238724223277
  O   2.28021898426927      2.45543567378547      0.85105495455147
  H   -1.95882628370858      0.22482424985300      0.11992988842543
  H   -0.04987362584549      1.79674723718284      0.54763515280451
  H   -1.49291098023578     -2.14783621080203     -0.40599539014061
  O   0.77941208726442     -3.21271098617720     -0.43317394146609
  C   3.59021234230520     -3.85605320820768      0.50021258051675
  O   4.63364248467121     -4.43048913273422      0.61438759319848
  O   2.45072498333984     -4.14941672673542      1.00402732504024
  H   1.67698382591043     -3.76226444105747      0.37793100007087
  H   5.05866554929391     -0.61864834890874     -0.70252440068221
  H   4.62078421712387     -2.57988471731628     -0.62094866675961
