36
Coordinates from ORCA-job 160optt
  C   -1.79214763061647     -0.09566852953720      0.46910711994256
  C   -1.80973619923063     -1.30612659399857     -0.12406260271031
  C   -0.57462834098109      0.64289843520817      0.70928503665561
  C   0.63023466535014      0.15732946232312      0.34167037437621
  C   0.71563567433975     -1.12252383366554     -0.31449066316568
  C   -0.52300909433617     -1.90002514625267     -0.58687995935905
  C   1.92063355011536     -1.60907183539440     -0.68034390174155
  C   3.13836873099002     -0.87149810121773     -0.43830886237869
  C   3.15594284906449      0.33931982454419      0.15411788964933
  C   1.86879076036422      0.93539455286178      0.61297979384154
  H   4.06812723583776     -1.32736323612612     -0.75577372635950
  C   4.39281141152916      1.16161331377908      0.38547280881543
  O   1.84178553791229      2.00298935106018      1.19372057286213
  H   1.96641344765228     -2.57438461744424     -1.16979916925338
  H   -2.72169645532934      0.35907519008858      0.78877458343556
  H   -0.62042925181661      1.60796309563266      1.19922959350450
  C   -3.04612880484347     -2.12967089366695     -0.35346135851871
  O   -0.49609867821222     -2.96694190265218     -1.16885765575131
  C   -3.06928131828069     -3.31209746492756      0.62586333116676
  H   -2.16742258719009     -3.91478905318883      0.53516671013934
  H   -3.93125272485919     -3.94866176441112      0.42199456089167
  H   -3.14962900107672     -2.94672524613723      1.65196401896156
  C   -4.33897447221175     -1.33048740023557     -0.25512602221481
  H   -2.95529758673670     -2.54567647258003     -1.36070354884853
  H   -5.18441880435330     -1.96219100493254     -0.52813942416332
  H   -4.33162996340664     -0.46453788928406     -0.91862024194799
  H   -4.51144872518227     -0.98025470923027      0.76515777717079
  C   4.42077939803683      2.34155383928903     -0.59674684058423
  H   4.50378085401975      1.97344405933189     -1.62165657680488
  H   5.28303652796728      2.97738795574448     -0.39179571089806
  H   3.51950751817313      2.94575330074345     -0.51038862984864
  C   5.68475144088744      0.36023282550594      0.29313582555340
  H   4.29942891562271      1.58024417623123      1.39138226098433
  H   5.67373803502793     -0.50446711161215      0.95820951818313
  H   6.53022421588023      0.99114182781720      0.56789678268788
  H   5.86025886989256      0.00781159633401     -0.72587366427306
