19
Coordinates from ORCA-job 161optt
  C   1.65062034834476      1.21654368125547      1.59752668090720
  C   2.23169593993823     -0.02721381537278      1.86011094389016
  C   0.54800980274432      1.44824173101246      0.59423783187174
  C   0.09720643226391      0.31664818240767     -0.10877930581432
  C   0.70381138321460     -0.94407586802468      0.17032334011587
  C   1.74866059221581     -1.08392856651579      1.14260445350292
  C   -0.96577577684581      0.40193268734099     -1.10567506920150
  C   -1.32682893516782     -0.87361261917790     -1.76602438755862
  C   -0.72401100775380     -2.04477412704743     -1.47155110362457
  C   0.30668059661566     -2.08623357285926     -0.48858839578560
  O   1.98900941593010      2.30665708224175      2.18202603416761
  H   3.01821137496684     -0.12140469760459      2.59510493967559
  O   0.20829408370189      2.63860510947397      0.55262702245561
  O   -1.55155942322276      1.42608706563311     -1.41307669566133
  H   -2.11384523018689     -0.80420771777818     -2.50682776339690
  H   -1.01357029592181     -2.95905344380850     -1.97341765684198
  H   2.15684942062662     -2.07556051659576      1.29868106114837
  H   0.78693834925138     -3.02821103878514     -0.25361055503601
  H   1.35536292928475      2.96827044420461      1.73098862518577
