28
Coordinates from ORCA-job 164optt
  C   -0.73549074473943      2.26036158428956      0.60110022482867
  C   -1.78404603992606      1.23593703008641      0.60364805416740
  C   0.55124448918102      1.95139956260809      0.36444319981371
  C   0.96109576450666      0.58711480678312      0.11443395254858
  C   -0.06164484105666     -0.42759493420890      0.10867865166894
  C   -1.37098067183775     -0.14695953080403      0.32236673076590
  H   1.27167914460754      2.75217979042495      0.40745091926265
  O   -2.94410605143687      1.54214713317847      0.84111321767223
  C   2.30103529680797      0.27451277883967     -0.10856576091097
  C   2.73454423681631     -1.10185895220715     -0.20458655862578
  C   3.30170872412735      1.30154433970861     -0.24682564393190
  C   4.61120335895554      1.02260142518789     -0.46097007752778
  C   5.05701236118924     -0.37681091165839     -0.52959734255090
  C   4.02824621059122     -1.41309377135270     -0.39667396451441
  H   2.03819327687618     -1.91629707087999     -0.08640806494600
  H   3.00883644301365      2.33996652639713     -0.22166731056326
  O   6.22989882947280     -0.68849442810298     -0.68214955161055
  N   5.60160873829289      1.93833840887681     -0.66549355436236
  O   -1.15325488726694      3.50737249986710      0.86552045438994
  N   -2.40089892487072     -1.03978612523195      0.26697108224948
  H   -3.28463499475687     -0.71564002688261      0.62778861526625
  H   -2.20646068421374     -2.02235133524507      0.34363616427007
  H   5.45759626990303      2.89110922520857     -0.38148773893883
  H   6.54427289571272      1.58339475390762     -0.62395380336820
  O   4.47670214194638     -2.67547195069102     -0.46423467589062
  H   -2.11321191984433      3.45556637271262      1.00732379594959
  H   5.43819087516483     -2.62307095632538     -0.59508089395277
  H   0.20129070278395     -1.45031624448649     -0.11421012115909
