36
Coordinates from ORCA-job 175optt
  C   1.54352693685824      1.16992717363363      1.77293795708712
  C   2.20260773127081     -0.00603660861881      1.89246620453838
  C   0.50885418159157      1.40428476401295      0.75336798897218
  C   0.13084539732358      0.24434249716039     -0.02440172334185
  C   0.74275422364657     -1.02643650637949      0.21714159356897
  C   1.88420079924446     -1.11193200497883      1.06946675958907
  C   -0.87900757108077      0.39325664783408     -1.04970756017546
  C   -1.20455225441414     -0.83217192346526     -1.79638360881398
  C   -0.71321272792439     -2.04757373641099     -1.46072843676815
  C   0.20643723584512     -2.19806313446046     -0.39608288511973
  H   1.79163380154619      2.02664407637259      2.38896759867909
  H   3.02708115169144     -0.09466584383894      2.58892228692445
  O   0.03777018006349      2.53125624688387      0.65894296709884
  C   2.93913251341025     -2.19210963328913      0.98906004014808
  O   -1.45578465697810      1.42798608069826     -1.36158828094282
  H   -1.92169038319926     -0.71042065523028     -2.60005459158673
  H   -1.06677866803911     -2.93347883971946     -1.97339615729464
  C   0.34151504624541     -3.59828182629984      0.15817448645529
  C   4.23602452892835     -1.57318171104964      0.43676386970618
  H   4.05709461073861     -1.07153171165361     -0.51424290301431
  H   4.97179800618644     -2.36309792781298      0.27993815236269
  H   4.65963980376358     -0.84758796902065      1.13119567498203
  C   3.20614443170275     -2.87119102270806      2.33540285827937
  H   2.63888814660623     -2.93982917176246      0.26288673131118
  H   3.94637024334090     -3.66176970315665      2.20731547561190
  H   2.30250269342904     -3.31103671221813      2.75857051761917
  H   3.60323672172080     -2.16270600217618      3.06292416048472
  C   -1.03427292773282     -4.05822183998500      0.67318117392736
  H   -1.44414997129019     -3.34429315230098      1.38766718405362
  H   -0.92713589371948     -5.02366131308187      1.16947174240930
  H   -1.74839204557834     -4.17295266105382     -0.14227117518181
  C   0.88747230532285     -4.59858884886515     -0.86471312218461
  H   0.99004807999701     -3.58384222712316      1.02754978279244
  H   0.20768704776009     -4.70913704900969     -1.71007287599471
  H   0.99542590342306     -5.57838095455491     -0.39807733585757
  H   1.85882537829967     -4.29495679637120     -1.25631455032513
