18
Coordinates from ORCA-job 178optt
  C   -2.39850391002679      0.33477734700003      0.10906024776287
  C   -1.65087696773926     -0.30287892901146      1.00875444573816
  C   -1.73345907817210      1.05728120545961     -1.00922587789661
  C   -0.25246456628945      1.03670454499762     -1.07564164881794
  C   0.49516323165005      0.39900929888468     -0.17597778745680
  C   -0.16986796672942     -0.32302473473167      0.94263493040204
  C   -3.90899442690394      0.29356375802696      0.27112989926187
  H   -2.10950666066909     -0.83628371984438      1.83319198453029
  O   -2.36475215200011      1.65480668637212     -1.85649111910447
  C   2.00564489675089      0.43992858141640     -0.33826632904027
  O   0.46142126918656     -0.91993693665674      1.79034411271214
  O   -4.40314781007234     -0.29911877741105      1.18245049411893
  O   -4.62392311743985      0.93974851573062     -0.63742628062926
  H   -4.04166979963206      1.35865326874969     -1.30058806572002
  O   2.49978290648604      1.03303296000101     -1.24932457180527
  O   2.72063179518560     -0.20599604844608      0.57045569397643
  H   2.13841714836974     -0.62500025459696      1.23358170667912
  H   0.20620520804558      1.56993323405956     -1.90017183471120
