15
Coordinates from ORCA-job 17optt
  C   -2.08231700425065      0.16186432638108     -0.11299784085018
  C   -2.12546262823674     -1.16157499596855     -0.26266355113244
  C   -0.78710162538012      0.85748219313801      0.17580194984183
  C   0.44408047196621      0.02802327688574      0.16449268735387
  C   0.39731505448065     -1.29066404999087     -0.00317816032629
  C   -0.89326797658556     -1.99247477846722     -0.20315882770230
  C   -3.30162877547084      1.02475828521466     -0.29784882926782
  H   -3.04578562886364     -1.70020754032704     -0.46274144969438
  O   -0.75292351940457      2.02995901947848      0.44735707086118
  H   1.36754976288760      0.56850932713558      0.33076532318519
  H   1.27970910277832     -1.91801550940840      0.00781366016146
  O   -0.95232077756484     -3.19308452671728     -0.31777542687116
  O   -3.35733961222832      1.87146488809329     -1.12919460365555
  O   -4.34650890159649      0.74564897028284      0.50221345828157
  H   -4.11167794253095      0.08184111426968      1.16111453981504
