32
Coordinates from ORCA-job 185optt
  C   1.83521369305123      3.27628914488813      0.84526823746291
  C   2.98163629115133      2.59693447294912      0.72487418046876
  C   0.55645463304413      2.49302132284029      0.92205320152722
  C   0.63621811589994      1.01866861152480      0.84805905306134
  C   1.78263726909865      0.33931272899992      0.72763674561789
  C   3.06143392547627      1.12256422604861      0.65123263399640
  C   1.79596721645662      4.74931405147780      0.91934641319935
  H   3.93667337750695      3.10199874885790      0.64098932061478
  H   -0.31883566731724      0.51360554697066      0.93175548831920
  C   1.82182621283655     -1.13369892444797      0.65321217282513
  O   -0.51645501545445      3.03314781617830      1.06451397713817
  O   4.13432024465710      0.58245883728642      0.50851029350315
  C   0.81981314100708      5.48506069439000      0.24506285004626
  C   2.77363861256377      5.42987526819495      1.64723211232492
  C   2.78386750125774      6.81478870147021      1.69346810026702
  C   0.83927357422567      6.87050833665463      0.28443154249707
  C   1.81772663813866      7.53883039065266      1.00814509839491
  H   1.82382477748658      8.62043751869984      1.04302644882951
  H   3.54205430002252      7.32815340199611      2.27006104989468
  H   0.05153052590138      4.97133792657010     -0.31409877461917
  H   0.08376345094018      7.43047029710647     -0.25082192083320
  H   3.51617583463649      4.86601347797062      2.19819756133230
  C   2.79770938980007     -1.86969628704003      1.32761745749739
  C   0.84431723563125     -1.81400106701076     -0.07513885244466
  C   0.83397691527382     -3.19890297771806     -0.12170570364332
  C   2.77812951010847     -3.25513299780340      1.28791769641008
  C   1.79984149464941     -3.92319376964499      0.56374072371661
  H   3.53341698462499     -3.81529814191775      1.82327212965442
  H   1.79365724035270     -5.00479206370624      0.52859451263859
  H   3.56585619744805     -1.35617602848328      1.88714856206257
  H   0.10199399150270     -1.24993686234520     -0.62618691596978
  H   0.07592238802132     -3.71206240160990     -0.69865539579057
