34
Coordinates from ORCA-job 187optt
  C   -1.86393743242196      0.01264707794684      0.01881354496728
  C   -1.82272263888924     -1.35877467278184      0.04743153007606
  C   -0.61258804504849      0.77634750007256     -0.00537549359060
  C   0.58286512636916      0.17238207585621     -0.00130549244666
  C   0.67924588025350     -1.26928416234535      0.02638425009667
  C   -0.57889366331144     -2.08895636519960      0.05305238928828
  C   1.87466280439290     -1.87332037861939      0.02817352209890
  C   3.12601697606304     -1.10968582564596      0.00256147566675
  C   3.08485707795796      0.26181018061761     -0.02251276417396
  C   1.84104511194696      0.99205871532451     -0.02626389502489
  N   4.29230037748478     -1.80709478594847      0.00345358680924
  H   3.97821206958271      0.86603688879032     -0.03983096644758
  O   1.78289025070581      2.21241847634819     -0.04797605728383
  H   1.88431295319485     -2.95437526342604      0.04878040043790
  N   -3.03032486514704      0.70984945960949      0.01125134897049
  H   -0.62228647563815      1.85738040777337     -0.02709632051279
  H   -2.71603591366344     -1.96294714336305      0.06832153926768
  O   -0.52068969147536     -3.30925328534504      0.07802587009658
  C   4.32452900968420     -3.26055448667222      0.05272299785416
  H   3.85163602233384     -3.64622966054841      0.95786618045069
  H   5.36145188645040     -3.58268061487656      0.05293375569610
  H   3.83377031732312     -3.70623202974945     -0.81439836838270
  C   5.53803532074449     -1.07007254416936     -0.02190191823489
  H   6.37091521808798     -1.76633634739374     -0.02800275872017
  H   5.62795234738952     -0.42210807471424      0.85473474093058
  H   5.60017711568172     -0.44157855260980     -0.91448745432311
  C   -4.27596049342287     -0.02716619006762      0.04156284018363
  H   -4.35589857171787     -0.69210470891632     -0.82273821352157
  H   -5.10912035251570      0.66855306392670      0.02351298966258
  H   -4.34777093207979     -0.63817219154723      0.94597748276652
  C   -3.06238113514126      2.16410067813639      0.00213840303373
  H   -4.09932617798229      2.48615056400448      0.00055729019261
  H   -2.58164472257214      2.57395148015942     -0.88788656684331
  H   -2.57935475461989      2.58643071537363      0.88540013095961
