12
Coordinates from ORCA-job 191optt
  C   -1.79222503698891      0.12541564864834     -0.00000119764472
  C   -1.90243709154459     -1.20020976552460     -0.00000193376308
  C   -0.46241945469256      0.78744319879645      0.00000003085473
  C   0.73989883270726     -0.08496353022602     -0.00000115792110
  C   0.62968671098740     -1.41058895309299     -0.00000198900582
  C   -0.70011883546059     -2.07261647742400     -0.00000808680758
  H   -2.64834628005374      0.78854121503956      0.00000059027154
  H   -2.85644825097267     -1.71270738686715     -0.00000009538913
  O   -0.36247477767941      1.99210875837354      0.00000390774231
  H   1.69391003177061      0.42753401216043      0.00000068408673
  H   1.48580781536275     -2.07371468906066     -0.00000017489723
  O   -0.80006366343557     -3.27728203082289      0.00000942247337
