28
Coordinates from ORCA-job 196optt
  C   -0.00293632399541     -1.25440899489110     -0.41043673322143
  C   1.09152065941007     -1.73906187921972      0.19187296602065
  C   -0.16791437998111      0.16494804121511     -0.61310655533162
  C   0.78579090043962      1.04764892065706     -0.24660828540847
  C   2.03182878934685      0.60374914922066      0.35656633807178
  C   2.16464934916220     -0.85287372006194      0.68249906227636
  C   3.00152954736712      1.51628487035003      0.65274405295557
  C   2.74046747991943      2.93982654290798      0.44051981000064
  C   1.60706046247142      3.41219256195536     -0.09050135568690
  C   0.53114318531246      2.49763190861950     -0.49357839835431
  O   -0.49950771507088      2.90372820390274     -0.98995674439881
  H   -0.78794948183781     -1.92143765919686     -0.74439473410113
  H   1.23611273158915     -2.79502060226683      0.37890757290419
  O   3.07406027093121     -1.31144587301767      1.34291917558123
  H   -1.07050725764297      0.54706799369706     -1.07354205449474
  C   4.35896317531435      1.20218615585326      1.15407706499241
  C   4.82493780533714      1.81795097500402      2.31317364827212
  C   5.21520947681345      0.36985217522190      0.43543919510686
  C   6.50751568688862      0.14911444776168      0.87622689216941
  C   6.11370025893470      1.57605029004962      2.76880695651854
  C   6.95826947953048      0.74506007562080      2.04901815221637
  H   4.16736651435855      2.47121327848570      2.87467351639134
  H   6.45679520739990      2.04208133866679      3.68307943357800
  H   7.16556037130480     -0.49480202815486      0.30778561962187
  H   7.96656224136208      0.56296306597190      2.39699645041993
  H   4.85774983506016     -0.10662002488853     -0.46846692526063
  H   1.43742333537382      4.46868969770538     -0.25135947570339
  H   3.53537839490046      3.62159108883091      0.71918535486415
