26
Coordinates from ORCA-job 198optt
  C   -0.91736630135376      0.00909867699888      0.37500124030460
  C   -0.90514614232605     -1.33733184593420      0.20601422652883
  C   0.27901157787969      0.79573695560374      0.36234402773149
  C   1.49643328242774      0.23397169608441      0.15826064570993
  C   1.60538669471928     -1.18486812451246     -0.02702416002272
  C   0.39830744629911     -2.04664260616864      0.02989603256340
  C   2.82281371844523     -1.74663938909765     -0.23106502345829
  C   4.01919642141792     -0.96000586740442     -0.24366661885134
  C   4.00696712995417      0.38642602541910     -0.07469666554397
  C   2.70350737819972      1.09574819708440      0.10128941702243
  S   5.50132108283659      1.26673883122073     -0.23011244602956
  O   2.63541192202012      2.30564328259919      0.17123048329449
  H   -1.86545189880568      0.51534954546926      0.51037557081995
  S   -2.39949198878138     -2.21763869128925      0.36156976729046
  O   0.46643762940306     -3.25654895135335     -0.03979863203635
  H   4.96728776903569     -1.46626217817049     -0.37897825812347
  H   0.21417814596010      1.86896076961137      0.49188891611343
  H   2.88764791025073     -2.81986423973338     -0.36060126382778
  C   5.35213031708968      2.66343664352846      0.90971280126277
  H   4.75308928019568      3.45931198738848      0.48427810805197
  H   6.37594235597501      2.99505772304562      1.07408799131778
  H   4.92598987636917      2.33592922306693      1.85424912346683
  C   -2.25081369497784     -3.61386218648189     -0.77890286850510
  H   -1.82475630855781     -3.28603116555836     -1.72336556842010
  H   -3.27473191340453     -3.94516744513260     -0.94325109618614
  H   -1.65189169027167     -4.41006686628388     -0.35392575047354
