28
Coordinates from ORCA-job 19optt
  C   -0.99212835405477     -0.42491351181438     -0.39086849372195
  C   -0.64407101489802     -1.71116317837367     -0.51282595065304
  C   0.00613948968242      0.58048255157539     -0.09430146456745
  C   1.34833825546665      0.22834333968362     -0.00686076166547
  C   1.74813335811390     -1.16619788636677     -0.08663803999403
  C   0.71098446912710     -2.17747172467940     -0.25907233358690
  C   3.09757362856662     -1.48886276224207     -0.18175149323891
  C   4.06623065364908     -0.41493343018185     -0.33433727771748
  C   3.74196881438273      0.87219581266705     -0.19511838007054
  C   2.36423403427646      1.28166128827016      0.06383194349261
  N   3.68439844868237     -2.73780102672838     -0.20495856873054
  H   4.47861753843532      1.66301823299058     -0.24409572149263
  O   2.12457097883300      2.47188396331856      0.27481579518522
  H   -2.01603880102481     -0.10997942780619     -0.51152701779059
  N   -0.36319813389100      1.89020794275070      0.05557475684770
  H   -1.37399596085487     -2.48101018102410     -0.72469080214322
  O   0.90554509781792     -3.39903309807167     -0.21622868151797
  C   3.72560850119956     -3.75592719746465      0.81344799748989
  O   4.76891197291349     -4.31514092252269      0.98816710852393
  O   2.62086149651379     -3.95636035758743      1.47181990677324
  H   1.84722427608541     -3.75380293585787      0.84575135156853
  H   5.09904137716474     -0.69954701980976     -0.49992504180149
  C   -1.61633414938996      2.44836667979160     -0.06363631689997
  H   0.41834765442037      2.52589341277795      0.25070954319314
  O   -1.51639118896739      3.77046900741121      0.14694480672376
  H   -2.40645999309395      4.13789310109827      0.06322306048600
  O   -2.65284540943172      1.89203609423801     -0.30750748431641
  H   4.62023296027551     -2.70991676604221     -0.58897244037539
