24
Coordinates from ORCA-job 202optt
  C   -1.63184881000119      1.12850691152649     -0.11840583822476
  C   -2.06784363057567     -0.11662355775771     -0.36150547128699
  C   -0.22651111937897      1.41305230804306      0.07939865717909
  C   0.70078663426170      0.43368085005719      0.04855118408394
  C   0.30389014819504     -0.94186658346652     -0.16843999332564
  C   -1.12781265362221     -1.24507248454426     -0.46312563641103
  C   1.23054088099603     -1.92548982633606     -0.11404079368404
  C   2.63785938972088     -1.62205099971837      0.08512398353732
  C   3.07244789856393     -0.36960130992582      0.27693273614162
  C   2.13692416749366      0.76849303857134      0.27996551975110
  H   3.33270695435505     -2.45301645492266      0.06756278552893
  H   4.11833681956706     -0.13683780127124      0.42663732502505
  O   2.51632024086713      1.90694086255948      0.45609654128575
  C   0.89082001270144     -3.37505852734273     -0.30897661278829
  H   -2.33342508958219      1.95197179175055     -0.07132625289690
  H   0.09916692809682      2.42872933026323      0.26756756230932
  H   -3.11190603392830     -0.34706923271035     -0.52678039149882
  O   -1.49744015900288     -2.35214635325541     -0.79808877453448
  O   1.23704114306970     -3.99084717527887     -1.27654553566466
  O   0.26562652140432     -3.88589629831003      0.74474869104250
  C   -0.21215973559580     -5.22183416405335      0.57029203519779
  H   0.61377607616344     -5.89467815197412      0.34676733374809
  H   -0.93099773950975     -5.24022848391144     -0.24785953856386
  H   -0.68724884425923     -5.49118768799236      1.50797048404898
