31
Coordinates from ORCA-job 203optt
  C   -0.95191284005816     -0.18689467517728     -0.08392683552780
  C   0.51836966368019     -0.12582825108421      0.08312684497303
  C   -1.55666675844832     -1.52310118564309     -0.12978430799827
  C   -0.75743615239535     -2.61156616732784     -0.27140247440664
  C   0.66352503518369     -2.50702660408894     -0.37699750102514
  C   1.29951067190298     -1.32382908017491     -0.20893894060408
  C   -1.73096047640638      0.91680274802733     -0.25801406723260
  C   -3.01378309839981     -1.66824378515730     -0.10630461485581
  C   -3.21651929572103      0.76898122851488     -0.27160567060538
  C   -3.78539507504360     -0.57191790845651     -0.16373730011505
  C   1.17429194014956      0.95247612744430      0.56847085152828
  C   2.74741894460493     -1.25698474029781     -0.18831777573562
  C   3.39662255934853     -0.16008147092732      0.21513662801175
  C   2.64284868609546      1.01554158741844      0.67434576653957
  C   -1.26482711574800      2.31986276938177     -0.47506035288401
  O   -3.93470750265227      1.74752469994869     -0.36370961104599
  C   -3.63032165211085     -3.00814007721530     -0.04564053925335
  H   -4.86533857899278     -0.63644375754234     -0.18861547414994
  H   -1.19432906864537     -3.59799989023625     -0.32915265845165
  H   1.24354345132051     -3.40607264144099     -0.54808613380363
  H   0.66299134428042      1.82986722452025      0.93160791894305
  O   3.19439279860554      2.00455078709439      1.12066215992715
  H   3.28685540653606     -2.14910519103622     -0.48625878714364
  H   4.47583015117013     -0.09745673559482      0.25507394919712
  H   -0.28482317198960      2.35093083618828     -0.94795102601052
  H   -1.20521161622279      2.87448216399600      0.46512418660071
  H   -1.99831279451334      2.83717926401679     -1.08953611415282
  C   -4.65226822119803     -3.30337438492668      0.74640673580533
  H   -3.22913041578978     -3.77491340741663     -0.69884920964643
  H   -5.06359967961440     -2.57148268232721      1.43120391454068
  H   -5.09912713892799     -4.28840680047944      0.74072043858166
