36
Coordinates from ORCA-job 209optt
  C   -1.61318566562198      0.96640721181001     -0.37186561824593
  C   -1.80348140305334     -0.31246380876689     -0.71731906898725
  C   -0.30811125651948      1.54118955528746     -0.05044962394470
  C   0.80060056990835      0.74392392398623     -0.14472699558793
  C   0.65344943007550     -0.66953611430704     -0.43947128467883
  C   -0.67452852111951     -1.24882885435703     -0.77641119079418
  C   1.71151115995267     -1.50514329178142     -0.35950678891992
  C   3.02371790308611     -1.03937878901777     -0.00273251065573
  C   3.28361970446376      0.26341877828901      0.21747865090890
  C   2.18361386035346      1.25732537740744      0.08090543047769
  H   3.81682568704240     -1.77256969581334      0.07737753305276
  C   4.64904497642082      0.81456680304032      0.52873029648215
  O   2.44449658760517      2.44759492592329      0.13675839691909
  H   1.54760435931795     -2.55745736903530     -0.55690016572212
  H   -2.46655287488651      1.63068108109088     -0.33888694310508
  C   -0.29121782378760      2.99979074041946      0.33918240345253
  H   -2.77981421672884     -0.70584918683679     -0.96905736746167
  O   -0.82639362804157     -2.41484814365719     -1.08232427797306
  C   5.26799685770422      1.42600476415753     -0.73629343104290
  H   5.42634500218105      0.64906829169918     -1.48737500835881
  H   6.23433695592215      1.87408441570258     -0.50027459238172
  H   4.62341648145685      2.19593851387767     -1.15577767827822
  C   5.59278755355936     -0.21788899122646      1.13467377837292
  H   4.50089575467109      1.62786637614885      1.24360944207667
  H   5.86133957875774     -0.98661084094359      0.40681226094091
  H   5.15203847220738     -0.70791666047959      2.00394756264214
  H   6.51755313992312      0.26743415315014      1.44740623515972
  C   -1.51488405261749      3.42841504165026      1.15309544759096
  H   -2.41222302761681      3.52706329640044      0.54050220305554
  H   -1.31973778104567      4.40783054238421      1.59076084951402
  H   -1.72759568248056      2.73315683980544      1.96671443405305
  C   -0.15435588571628      3.86074557673573     -0.92374814886592
  H   0.59523699082677      3.17104954335555      0.94455118000922
  H   -0.13839844812807      4.91700680916964     -0.65105344153308
  H   -1.00198364774866      3.69584873417112     -1.59341921373752
  H   0.76724288967637      3.62513045055991     -1.45281275443373
