26
Coordinates from ORCA-job 219optt
  C   2.07180688041382      0.51824902506202      1.38618581576949
  C   2.70199495486750     -0.57562872109641      0.93927073916742
  C   0.61719194180573      0.79217442271846      1.17768189336804
  C   -0.03730726120611     -0.04792765337129      0.20227974776767
  C   0.64542055790691     -1.17428671750632     -0.32264521160945
  C   1.92240391067016     -1.57872645342024      0.24643599977683
  C   -1.32963376415630      0.34092185408439     -0.35038934257083
  C   -1.71965044569360     -0.38266278916359     -1.56432541413696
  C   -0.98958155365287     -1.40018235620087     -2.09048473695382
  C   0.19321120009254     -1.83401619233951     -1.45806751589501
  O   0.13940895050511      1.72601025831627      1.79874982083254
  O   -2.05539837977506      1.21738444328881      0.10614546421342
  H   -2.64056153673521     -0.05023978915611     -2.02780374857401
  H   -1.31154668171088     -1.89268207865977     -2.99993101207001
  H   2.58866572564003      1.25128104735014      1.99483028649408
  H   3.73360848346225     -0.75978044587261      1.19808733239289
  N   2.37194314388088     -2.82459537842902      0.20767075598123
  H   0.77083465941204     -2.62853961507044     -1.90572593259752
  C   3.74527294853931     -3.14874510785466      0.59439339486598
  C   1.53810808451609     -4.00711120079685     -0.00495782678022
  H   1.72637220489176     -4.45106139276918     -0.98308898452996
  H   0.48900241431799     -3.74586569133419      0.07962834257164
  H   1.80297314448136     -4.73418202044601      0.76363848389979
  H   4.44446510669950     -2.43580816803174      0.16666935875740
  H   3.98096881484803     -4.13474049444321      0.20307094828311
  H   3.85126649597892     -3.16275878485803      1.68105134157627
