19
Coordinates from ORCA-job 220optt
  C   -3.86648268111918      0.19462370747457      0.38548021830867
  C   -3.22440033780463     -0.18999024585605     -0.73396414201715
  C   -3.13034445972718      0.14961893332075      1.71062513704722
  C   -1.73327739145161     -0.32317821525011      1.72875807167266
  C   -1.12651898051725     -0.70098117438176      0.60994501768663
  C   -1.83508997160001     -0.65744002404134     -0.69834505153873
  O   -3.69159088948707      0.49952735019733      2.72102334444056
  O   -1.26016650194387     -1.00481880531597     -1.70744219889667
  H   -1.25935695010301     -0.33546857585335      2.70177522727008
  H   -0.10334488394484     -1.05388334281294      0.58076875318617
  H   -3.66325444802281     -0.18367968307252     -1.71753335261590
  N   -5.14444769324834      0.65423111802077      0.55771220719893
  C   -6.22023905567143      0.85171913924595     -0.30455429884926
  H   -5.36246642311083      0.89478257053828      1.52072498955524
  C   -6.06111942444232      0.51050275419415     -1.75807151906489
  H   -5.28882608464373      1.13063570798525     -2.21452074715104
  H   -7.01305138991667      0.69765367617183     -2.24467596555335
  H   -5.78146347902177     -0.53601498156974     -1.88178419358540
  O   -7.24528895422338      1.28852009100488      0.15418850290624
