20
Coordinates from ORCA-job 228optt
  C   -1.61589481718365     -0.16364336130208      0.08560571709265
  C   -1.89096783360323     -1.43124549170134     -0.24761899394935
  C   -0.19528160862700      0.32604958185884      0.18865400245596
  C   0.89323125803954     -0.69422047117296      0.02395685102093
  C   0.58915414888907     -1.95003012231586     -0.32115862116973
  C   -0.80481153570780     -2.39661621642696     -0.48897670328780
  O   -2.48731136719513      0.80969262932792      0.33659911702589
  H   -2.89520524404705     -1.81430097034725     -0.35713698636240
  O   0.04290763902316      1.49151116346060      0.36282577830148
  O   2.17212292320417     -0.30780345192835      0.10884965757041
  H   1.36453416074143     -2.68527362215146     -0.48924172774293
  O   -1.05419901735286     -3.54220457830483     -0.80215148675477
  C   -3.86138860106538      0.48099780968691      0.24295815741338
  H   -4.40621195673239      1.38872780783290      0.48223479119470
  H   -4.11740887987374     -0.30687604760265      0.95511163899690
  H   -4.10859524383291      0.15286901027948     -0.76920688441024
  C   2.57381594837229      0.66183527209727      1.08075202070408
  H   2.49484103747560      1.66743827423954      0.67788929680838
  H   3.60869478353697      0.42405861149752      1.31437709791359
  H   1.96912420593894      0.58318417297277      1.98393727717886
