19
Coordinates from ORCA-job 234optt
  C   -1.64323663300606      0.64429577933769     -0.00004997110669
  C   -1.77797190331343     -0.69021506909474     -0.00004442197580
  C   -0.34102497252013      1.28593487318190     -0.00000624125806
  C   0.79430764185980      0.56344021824308      0.00008269719043
  C   0.73154830549870     -0.88186418422967      0.00005434911924
  C   -0.59714036133887     -1.57050757224093     -0.00009250913519
  C   1.86133621011164     -1.60979652490031      0.00007836691705
  C   3.16482479430300     -0.96831209644472      0.00000760544732
  C   3.30033558146650      0.37241813456518      0.00003597913978
  C   2.13045165041822      1.24316144370092      0.00031646089981
  O   4.26378579219622     -1.75005030148296     -0.00009707408210
  H   4.27792148445300      0.83345173174764     -0.00008362580759
  O   2.21950763172286      2.45531914080394     -0.00017748789811
  H   1.79012654415982     -2.69351924223773      0.00002481769830
  H   -2.52221432373125      1.27702149465231     -0.00006277623080
  H   -0.26912183694983      2.36669909746877      0.00003915628714
  H   -2.74361605554473     -1.17802040456715     -0.00004940964343
  O   -0.69245088431482     -2.77973000996499      0.00011576782456
  H   4.02196133452937     -2.68189650853823     -0.00009168338587
