18
Coordinates from ORCA-job 236optt
  C   -1.63809075021101      0.64413828547342     -0.00005617564705
  C   -1.77454347222414     -0.68988115995355     -0.00004846742184
  C   -0.33393750216467      1.27961435431159      0.00008410618071
  C   0.80061551786413      0.55347991857184      0.00017074619453
  C   0.73713896063017     -0.89295752920416      0.00016962826866
  C   -0.59535169503464     -1.57492836761837      0.00024437419479
  C   1.86548204541867     -1.62656819323332      0.00010315682283
  C   3.14694389851187     -0.96152100718937     -0.00004638702289
  C   3.30982462780599      0.36633329485959     -0.00002999281357
  C   2.13086648814600      1.23983019746864      0.00030401003999
  F   4.20545225843772     -1.77076979536837     -0.00021480271524
  H   4.29074955140860      0.81972240453467     -0.00019971500761
  O   2.22819448554519      2.44892064937941     -0.00014731605337
  H   1.82543119092395     -2.70882440582449      0.00008193224080
  H   -2.51460813685102      1.28002109146748     -0.00019034980827
  H   -0.25876399638762      2.36021662242411      0.00007771078685
  H   -2.74101466838042     -1.17621648919362     -0.00019983206933
  O   -0.69782880343877     -2.78229987090550     -0.00010262617003
