18
Coordinates from ORCA-job 243optt
  C   1.62279415617436      1.28783502553498      1.58776775790246
  C   2.18818343528669      0.08136958150145      1.84179921745063
  C   0.54116847246228      1.50416395934681      0.59972433599478
  C   0.09629605851829      0.32705812019001     -0.10998783614554
  C   0.69987299231408     -0.93520831774253      0.16663962124942
  C   1.72204983741321     -1.02935011364474      1.12611372552432
  C   -0.95458905680606      0.41725632670085     -1.09734582296913
  C   -1.32530959737095     -0.85498664251684     -1.75855437005931
  C   -0.74335863914409     -2.04941407767816     -1.48581143335497
  C   0.27134239911525     -2.08369387966695     -0.52011716291727
  H   1.94617735517412      2.17908200323297      2.11278014880969
  H   2.97779503221456     -0.06244616394159      2.56700119872502
  O   0.11391925521247      2.64192954520539      0.46239652714875
  O   -1.55627925467258      1.42854921117884     -1.43061270853894
  H   -2.11421196553295     -0.77227205971534     -2.49697873729698
  H   -1.02447682191613     -2.97157496625899     -1.97638463353012
  F   2.29021049603503     -2.18599921355306      1.39297042508790
  F   0.81759584552241     -3.25595833817307     -0.27679025308071
