23
Coordinates from ORCA-job 255optt
  C   -1.39226750390543      0.31689802845100      0.06288008455120
  C   -1.54410957207158     -1.00306375044578     -0.11710774792902
  C   -0.08009257948513      0.93008633929313      0.15547465735752
  C   1.04597922962811      0.19475149445376      0.07929168243991
  C   0.96774877516208     -1.23620266300814     -0.11079505677246
  C   -0.37508112190666     -1.89515354818861     -0.21572827781646
  C   2.08225758341984     -1.98071219889316     -0.23004454465788
  C   3.40445300034297     -1.37170489665806     -0.13087314294257
  C   3.54228028372406     -0.03693980487576      0.03078479320468
  C   2.38640970156491      0.84992087734575      0.14585202228131
  N   4.52751785857598     -2.18051007367181     -0.29555369746601
  H   4.51844412326288      0.42611291466901      0.09826111109142
  O   2.50678580560855      2.04812137287823      0.30521057343413
  H   1.98369240534590     -3.03858497991107     -0.44467433597558
  H   -2.26124968146150      0.95882146855221      0.13625117674425
  H   0.00826519002468      2.00267154121256      0.27908115688678
  H   -2.51522582725205     -1.47356204510954     -0.19450948978471
  O   -0.48961256450010     -3.09217124718078     -0.36131764460011
  C   4.75902733710488     -3.49343681739905      0.09774907190987
  O   5.73782013239017     -4.08389530121671     -0.24519266543199
  O   3.83880617328653     -4.05708619148109      0.89633866833223
  H   5.35861407737583     -1.74714991679508     -0.66942703221559
  H   3.21972717376502     -3.41814060202097      1.26875863735905
