24
Coordinates from ORCA-job 257optt
  C   -1.11619196020667      0.45113826679954      0.93461383053311
  C   -1.55391245712697     -0.68261835634896      0.36695731261939
  C   0.26091984707859      0.88319741876580      0.80619210784721
  C   1.16043518242279      0.16157037879334      0.10487606662618
  C   0.76441951083172     -1.06891443425356     -0.54204221039732
  C   -0.64618403885195     -1.54536617107087     -0.41336328267937
  C   1.65761381833510     -1.77635739636373     -1.26347561864917
  C   3.02659218703605     -1.33253348223660     -1.39358801433329
  C   3.48302380919621     -0.22266553827015     -0.78451157109899
  C   2.56601825990189      0.64284311930300     -0.01160482747354
  H   3.70749657280282     -1.91331244256489     -2.00462214566486
  C   4.91034939044298      0.19942717839919     -1.00997215966258
  O   2.93481987315218      1.69233603118076      0.47458780981547
  H   1.33770768729340     -2.68978422229253     -1.74898219924307
  H   -1.79478935099459      1.07094642188987      1.50710637668433
  H   0.58368600698995      1.80406517821237      1.27633923163746
  H   -2.57844190587115     -1.01938566356057      0.45477575031477
  O   -1.02611137528995     -2.58056330335249     -0.91676398070563
  O   5.34519429841766      0.31364983279823     -2.11892950152938
  O   5.69875121155237      0.40807974814272      0.04526097251467
  C   5.27927481282637      0.13792549736194      1.37887521546512
  H   6.17867944267357     -0.13394921092102      1.92476620395166
  H   4.57519931818144     -0.69457091118432      1.41497645977673
  H   4.82604985920609      1.02612206077294      1.81207817365108
