30
Coordinates from ORCA-job 259optt
  C   -2.67983065281982      0.04787377028879     -1.09967442463597
  C   -2.57118593007362     -1.26390927316002     -1.34622003528864
  C   -1.59676805026780      0.80547470777118     -0.49842470233737
  C   -0.41418287335940      0.22259715966123     -0.19490962646512
  C   -0.24524131420459     -1.20381276303285     -0.38839352358818
  C   -1.32802919568486     -1.99091512819842     -1.04816503591927
  C   0.88265846080234     -1.81070140223404      0.04718353480174
  C   1.97196982685179     -1.05023450782956      0.63338632934445
  C   1.89746706077168      0.27666904839528      0.79776462919958
  C   0.71405851295436      1.02973895652135      0.35556099330642
  H   2.86047906514161     -1.59618491785563      0.92656730629260
  H   2.70691482921724      0.85550290789341      1.22194941039413
  O   0.67481899776393      2.24158914699011      0.40692463878202
  C   1.11045833229947     -3.29042752625833     -0.07759511899036
  H   -3.58399799513258      0.58708729879179     -1.35495152467584
  C   -1.86365792103127      2.26789440131176     -0.28096094454069
  H   -3.36662565932700     -1.83624737801474     -1.80434542591234
  O   -1.18378837909375     -3.15679207876786     -1.35294583763799
  O   1.91636999645403     -3.75341242550689     -0.83287655100999
  O   0.39884843489455     -3.97806136649721      0.80694756365281
  C   0.47015423990083     -5.39873202442859      0.66268930768422
  H   1.49924784102169     -5.73909047661442      0.76273806134252
  H   0.08586482831404     -5.67871552169416     -0.31719805173434
  H   -0.15085913530323     -5.80772191423141      1.45293818878089
  O   -1.98911095705947      3.03854684968331     -1.18907494534278
  O   -2.04141065670263      2.55494052252193      1.00273613967223
  C   -2.17337790851229      3.94882588375187      1.29316425045901
  H   -3.02188336987353      4.36962718198609      0.75671739018930
  H   -1.26093360009199      4.46397051571379      0.99579771210910
  H   -2.32255682784970      4.01482035304228      2.36588029206787
