33
Coordinates from ORCA-job 265optt
  C   -0.96660675750960      0.15110605437020      0.13647049416645
  C   0.51083766345669      0.15588913328034      0.01554817714922
  C   -1.66907245519284     -1.12240910897887      0.00751747122028
  C   -0.96394050149588     -2.26623856327736     -0.17547579854691
  C   0.46509174390442     -2.26785226875505     -0.25370517251818
  C   1.18896495259920     -1.12525655847020     -0.16310120895282
  C   -1.69399568253424      1.25955046357511      0.37584334397035
  C   -3.11407645620939     -1.15036610497958      0.09644661937067
  C   -3.16150016848753      1.24355260558985      0.48367556290982
  C   -3.85918050818810     -0.05426281506281      0.30636693786268
  C   1.25030714746560      1.28315941009222      0.05182973641931
  C   2.63420417349229     -1.15157626849150     -0.26028583257898
  C   3.36802750739948     -0.03456265115797     -0.20922555037578
  C   2.72000712381653      1.27555265618292     -0.05255804146223
  H   -1.24665437462803      2.23530269376830      0.51213159388533
  O   -3.77067205367780      2.27067558424983      0.72181409951730
  H   -3.58314626122776     -2.12196727506982     -0.01213213994641
  C   -5.36181241476830     -0.02956436830115      0.37256749034457
  H   -1.49350025753054     -3.20747853101244     -0.26080730415585
  H   0.98012389376196     -3.21084615640752     -0.39358171719142
  H   0.81078707329808      2.26598784280921      0.15991586293850
  O   3.35621321589724      2.31184414303738     -0.00929063015105
  H   3.10347567075746     -2.12141343814528     -0.38151532634088
  H   4.44730317262921     -0.03917811603384     -0.28221755432730
  C   -5.92859709963352      0.61398495919239     -0.89988511184836
  H   -7.01426941507631      0.69208059646384     -0.82857527190562
  H   -5.68710128249562     -0.00045822530726     -1.77000032419747
  H   -5.52150043651897      1.61247873968005     -1.04943917069992
  C   -5.98033113100329     -1.40300158279662      0.59838564548674
  H   -5.62132700838770      0.62344644388099      1.21037024639464
  H   -7.05817161367992     -1.30623036325895      0.72951398865977
  H   -5.57116992181908     -1.89055664764311      1.48454688004480
  H   -5.81536753841366     -2.05706228302328     -0.26115799514127
