20
Coordinates from ORCA-job 266optt
  C   1.63553072032479      1.24376382666866      1.60122598720814
  C   2.22139114159329      0.02874378363363      1.87257355677007
  C   0.53539696949295      1.45062681373228      0.57731653821083
  C   0.09762819636781      0.30670760397852     -0.12256985268432
  C   0.69951475645046     -0.95937894746475      0.15762338537420
  C   1.76327440898457     -1.05875509019966      1.15350350787773
  C   -0.96500635817052      0.41283521117415     -1.11833855400702
  C   -1.34047938222432     -0.85112274009921     -1.77279406668811
  C   -0.74840349505459     -2.02787181886272     -1.47567725823847
  C   0.28412065323434     -2.09191092032345     -0.49993777864667
  O   1.96399723813881      2.34132832323300      2.18915034421039
  H   3.00760185539867     -0.08342985979211      2.60449334461148
  O   0.17704876825791      2.62734540641988      0.51319620024553
  O   -1.53134810227395      1.45254220106629     -1.41867962343995
  H   -2.12774889262164     -0.77954069241928     -2.51279014290287
  H   -1.05080794253035     -2.93943105277174     -1.97515362643405
  O   2.35569984803240     -2.20898172994401      1.42618381402246
  H   0.70993785353457     -3.06966168600990     -0.30804416310406
  H   1.35016885126230      3.00832709759883      1.75166256689563
  H   2.00382291180249     -2.92782572961838      0.88888582071907
