24
Coordinates from ORCA-job 268optt
  C   -1.62687310166395      0.59956194638219     -0.04069823799264
  C   -1.55742525860046     -0.77309165713572     -0.03761088431006
  C   -0.45011554450619      1.35740783235429     -0.01235081561606
  C   -0.31003658527923     -1.40799260181726     -0.00632298446093
  C   0.85826116511512     -0.67081729033489      0.02186563947174
  C   0.78684597257392      0.74214529065202      0.01877306081031
  H   -2.58401162831673      1.10235715690233     -0.06508955366135
  H   -0.51236943204607      2.43553147151836     -0.01511964152513
  H   -2.45877781057683     -1.37020760302095     -0.05925851735499
  H   -0.26303559817934     -2.48688421094494     -0.00401750000320
  C   2.04266751784456      1.49219765030167      0.04906997878508
  C   2.18346436371417     -1.29040774119771      0.05524215112492
  C   3.27717334930019      0.89066278793657      0.08109925504120
  C   3.35085235510104     -0.56739472529795      0.08301519289523
  C   4.48536553352084      1.61251877671608      0.11341041930767
  C   5.80935304039927      1.04240559348397      0.14893216564419
  C   5.88565119753905     -0.46286336697547      0.14482789805198
  C   4.62586392615396     -1.16362926520855      0.11289186701276
  Cl  1.92404328236575      3.20079481964853      0.04348252786323
  Cl  2.23770649193361     -3.00227241834865      0.05864353739211
  H   4.45640971739023      2.69429334662029      0.11360848351404
  O   6.80815025205660      1.73631364463650      0.17976979452378
  O   6.94954031661524     -1.05256459104981      0.16834933005142
  H   4.70613647754520     -2.24281484582090      0.11336683343469
