22
Coordinates from ORCA-job 278optt
  C   1.51694633160595      1.35576286994156      1.49490303957678
  C   2.10276147246076      0.14500655467732      1.76307837658899
  C   0.43554249321223      1.56150162992023      0.51421362941093
  C   -0.00091345596314      0.37369793204850     -0.19017128466547
  C   0.61806754618898     -0.85185289088743      0.10448765046423
  C   1.65062714315140     -0.97974580286464      1.06080403967235
  C   -1.05185658971701      0.41152331882167     -1.18329734961552
  C   -1.38390597857442     -0.88795945841063     -1.81864518082099
  C   -0.76404788776348     -2.06020249089065     -1.51129772901692
  C   0.24810105897884     -2.04609786743190     -0.53926721211199
  H   1.85035387331802      2.23999844571689      2.02576243920323
  O   3.08498767869366      0.11488496277553      2.69315025518777
  O   -0.00424483707307      2.69413903305926      0.37016211589717
  O   -1.68180306577942      1.39658566696267     -1.54183032286203
  H   -2.17228389674997     -0.84000922566382     -2.56117775515159
  H   -1.03840473203060     -2.98600391175941     -1.99918042391526
  H   2.07624231947451     -1.95893610355595      1.23216887176236
  H   0.75882879549354     -2.96377189021385     -0.27277640020163
  C   3.68915331888232     -1.12920929735157      2.98068229174114
  H   4.43706021353462     -0.93227299296904      3.74292113994308
  H   4.17686836563945     -1.54620041197506      2.09544824441852
  H   2.95768983301680     -1.84335806994965      3.36853156449486
