18
Coordinates from ORCA-job 288optt
  C   -1.63968161327201      0.66116714422723     -0.00000212045726
  C   -1.77820185602571     -0.67393062760413     -0.00000055358667
  C   -0.33610310677852      1.27829170146398      0.00000748471504
  C   0.79027289416396      0.53192488195273      0.00001137288690
  C   0.71368463581754     -0.91459896130909      0.00001287194314
  C   -0.61446984980897     -1.58113641640662      0.00002498103336
  C   1.87867563129491     -1.60635702810341      0.00000380020282
  C   3.18511996308867     -0.99362932368639     -0.00000331380623
  C   3.28811084036442      0.33776337531248     -0.00000200091937
  C   2.10241648925533      1.23319501277584      0.00000405985018
  H   4.05940914133053     -1.63051260114177     -0.00001027833980
  F   4.46032000124625      0.93948759968210     -0.00001088564660
  O   2.23193630388414      2.43368382324021     -0.00000037405137
  F   1.90851481396959     -2.92291884217733      0.00000287352056
  H   -2.51287101014026      1.30124307129368     -0.00001454665572
  H   -0.24319719812654      2.35698402348085      0.00000262003753
  H   -2.74683536810857     -1.15651473541262     -0.00001325335212
  O   -0.76056071215478     -2.78581209758774     -0.00001273737441
