26
Coordinates from ORCA-job 28optt
  C   1.59901690870420      1.24193535259689      1.30727679106488
  C   2.28549816405511      0.03886248202190      1.38729462610882
  C   0.35281869408802      1.42254392362926      0.46156467669280
  C   -0.08475262103849      0.25808218516351     -0.23568787509565
  C   0.62761124975919     -0.97131619134118     -0.14104216913564
  C   1.81787442171759     -1.05388765278283      0.67951665147736
  C   -1.28465877094200      0.32750962479155     -1.06504487807191
  C   -1.65218723528980     -0.92388438561448     -1.74704874502112
  C   -0.93913271628547     -2.06707007584608     -1.62498134007044
  C   0.22084800564337     -2.10340521535811     -0.81142140245424
  O   2.10728983479765      2.20919249865178      2.01089365493942
  H   3.16717427777117     -0.00208205786566      2.00790190327167
  O   -0.15408389488461      2.53694060219581      0.45473033901472
  O   -1.97695004875049      1.32609290951637     -1.21957867762258
  H   -2.54210921609371     -0.87023654608632     -2.36208744660477
  H   -1.24538120351615     -2.96580820161106     -2.14570340424905
  O   2.42508276624540     -2.22773953495995      0.71271528285961
  H   0.78665801426734     -3.01819333346541     -0.71636242921376
  C   1.59211741473883      3.55271792683288      2.11694790405849
  H   2.28238188138921      4.03433851230547      2.80370258166202
  H   0.58152404511566      3.54134132543015      2.51105866147424
  H   1.59359282933453      4.03633616039165      1.14600872883107
  C   3.60219928673943     -2.39217063982500      1.49104925415559
  H   4.39020801758092     -1.72478900543724      1.13962383429261
  H   3.90415380661486     -3.42524482481905      1.35237895747053
  H   3.39411608823815     -2.20485583851483      2.54529452016529
