24
Coordinates from ORCA-job 293optt
  C   -1.58054067340845      0.62118196965171     -0.03964314784943
  C   -1.50929635250668     -0.78915719784412     -0.03732102763965
  C   -0.44066021951898      1.37847879583787     -0.01130325218025
  C   -0.29885334876678     -1.42763459959666     -0.00715089663180
  C   0.89599315380387     -0.67465192821358      0.02234399955725
  C   0.82393716034179      0.74977210225858      0.02050777924068
  H   -2.54740708197555      1.10554775058065     -0.06414325204110
  H   -0.48850833397015      2.45839218672978     -0.01291274338440
  H   -2.42232475884139     -1.36871212194124     -0.05982666340696
  H   -0.23763363234182     -2.50686343929871     -0.00522176270304
  C   2.02492976316394      1.47464453394402      0.05103315331191
  C   2.16369158556290     -1.27574864304629      0.05336707407496
  C   3.28962158418609      0.89009229672746      0.08185353818571
  C   3.36356422391160     -0.56759266530105      0.08397160713604
  C   4.45128321839583      1.65784830654669      0.11072872678173
  C   5.76647895430737      1.05677620734648      0.14471849602650
  C   5.84519609088541     -0.48077704899782      0.14566830280381
  C   4.59768605489618     -1.21298532281745      0.11546511950409
  F   1.94657818170780      2.80528812934292      0.04916892792912
  F   2.21807154336052     -2.60760212962550      0.05477021993422
  H   4.39972958037684      2.73782387753992      0.10920099820278
  O   6.78272297293346      1.71979298042495      0.17218260933912
  O   6.92418733986039     -1.03607164989053      0.17110491741390
  H   4.65642299363580     -2.29262239035809      0.11732727639479
