14
Coordinates from ORCA-job 295optt
  C   -1.76631237092719      0.17422883822697      0.00006443102509
  C   -1.88595436233640     -1.16300939928239      0.00006440628041
  C   -0.44952252583924      0.77945876878726      0.00020153929337
  C   0.75844871637171     -0.12395663214461      0.00002141604161
  C   0.64514824222793     -1.45700409724970      0.00002543413245
  C   -0.67369792080298     -2.08137843832950      0.00023100378540
  H   -2.61981912247558      0.84093137439807     -0.00003960681217
  O   -3.03143005924475     -1.83584582746785     -0.00004498414330
  O   -0.24718018440833      1.97725849170344     -0.00007536276458
  O   1.91513278477779      0.52489990969797     -0.00010295589379
  H   1.50561356947872     -2.11089291625883     -0.00009793659263
  O   -0.84311729908244     -3.27466948172950     -0.00007668237152
  H   -3.78152679085750     -1.22883305550426     -0.00013873066036
  H   1.70227732311824      1.47650246515294     -0.00003197131998
