18
Coordinates from ORCA-job 2optt
  C   -1.65551560673817      0.63711340566090      0.00001167993982
  C   -1.79404915080092     -0.69763990169836      0.00001575110930
  C   -0.35120488122923      1.26577360917952     -0.00002580324545
  C   0.77905055374995      0.52764576405453     -0.00004425791548
  C   0.71127010600143     -0.91485557070058     -0.00004185011363
  C   -0.61839235883565     -1.58889588061949     -0.00005641755140
  C   1.84448365760951     -1.64809822046912     -0.00002875114376
  C   3.14735855024262     -1.02927673555388      0.00000470142218
  C   3.28496181889452      0.30761663035353      0.00000527174569
  C   2.10263181598281      1.21479133736440     -0.00007657981163
  H   4.02858120768726     -1.65730335415884      0.00003838736292
  Cl  4.81980936978650      1.05948488144322      0.00006944645785
  O   2.21725938395190      2.41692060254333      0.00003940804328
  H   1.76801428391992     -2.72846548255291     -0.00002376317489
  H   -2.53015643448146      1.27545262718451      0.00004236084436
  H   -0.27072047720659      2.34575599679478     -0.00002664469428
  H   -2.76225961263778     -1.18081494779258      0.00005601573532
  O   -0.73454222589664     -2.79689476103297      0.00004104498982
