30
Coordinates from ORCA-job 300optt
  C   -1.98964352477049     -0.07878869073650     -0.45177214081775
  C   -1.88151286469533     -1.40591099268324     -0.62741151921307
  C   -0.82397071516948      0.75402667332667     -0.21706475179210
  C   0.40652786419849      0.21296397067117     -0.12483579495942
  C   0.60582851569641     -1.21051238394215     -0.30016149270971
  C   -0.57198230898794     -2.08555825462042     -0.56342711554975
  C   1.84179863835597     -1.74460974400054     -0.24394923777541
  C   3.00532280013157     -0.91314030730647      0.00081500387674
  C   2.90082387691869      0.41403821367492      0.17987550810401
  C   1.58556177403035      1.08736865196703      0.14277877863953
  C   4.32851018348997     -1.61573038530857      0.03988849243978
  H   3.76432837585370      1.03868280978685      0.36265471991975
  O   1.48621141708617      2.28040760355008      0.32708337458616
  H   1.98420609871432     -2.80855571010153     -0.38674742117062
  C   -3.29738178498530      0.63932524238927     -0.65202595781284
  H   -0.95333800084596      1.82508303109234     -0.12095965480788
  H   -2.73560290080026     -2.03721940907274     -0.83633331806249
  O   -0.48051074983910     -3.28501829864120     -0.70873488171437
  O   4.44587323395307     -2.79978893180573     -0.11823903553339
  O   5.34640476586759     -0.78835841306522      0.26717323958448
  C   6.63472231081573     -1.40616111870601      0.31007892535446
  H   7.34032100926191     -0.60455922996457      0.50192367935477
  H   6.84877956066126     -1.89075989946363     -0.64097664057890
  H   6.66717681052381     -2.14929560193421      1.10492132811250
  O   -3.33804086561905      1.62828157815093     -1.32100580398181
  O   -4.41552190190382      0.12923798619153     -0.12224790585574
  C   -4.39362242214413     -0.76059057744335      0.99277603883496
  H   -4.43985630789545     -1.79555611847801      0.65743158556434
  H   -5.28156841372206     -0.52957197727997      1.57516660649580
  H   -3.50739447418076     -0.61306971624669      1.60753539146797
