36
Coordinates from ORCA-job 304optt
  C   -1.26978677216784      0.90052300437482     -0.63852687318111
  C   -1.53391137129826     -0.36124052387473     -0.98790641420694
  C   -0.04726659626992      1.29309090345027      0.04522183903116
  C   0.93158680480419      0.35553375463107      0.24635807339191
  C   0.71007249662513     -1.05510606214326     -0.08761504887422
  C   -0.62583038719337     -1.45111503218583     -0.62035728439253
  C   1.68872885881255     -1.99268225215395      0.11450283953216
  C   2.91100927764070     -1.59995438043398      0.79858108160175
  C   3.17548827708193     -0.33800288063167      1.14706138782667
  C   2.26784071521159      0.75173041408843      0.77810210495128
  H   3.62583187483796     -2.37695201468702      1.03516309572584
  H   4.08947127509443     -0.04898130120669      1.64932691270273
  O   2.64996616107493      1.90536370846029      0.87576099302007
  C   1.59547355887310     -3.44859945067607     -0.28260070957577
  H   -1.98490071648389      1.67748461534085     -0.87435509568474
  C   0.04576905598404      2.74877878404646      0.44321422857403
  H   -2.44782589077799     -0.65019515592750     -1.49033937596831
  O   -1.00703077592164     -2.60478828486216     -0.72126417099517
  C   2.92591305790534     -4.01428738909671     -0.78960732598429
  H   2.73703206860639     -4.97248969753499     -1.27466533398400
  H   3.63844975396308     -4.20035332461565      0.01511598994274
  H   3.39650162689137     -3.35437140184743     -1.52003943027498
  C   1.07465493128019     -4.27424294420453      0.90010612543240
  H   0.86852435763923     -3.53350371940766     -1.08474597873363
  H   1.00639697695848     -5.32548043246878      0.61612076643838
  H   0.08679800534166     -3.93317056147114      1.20408499236401
  H   1.75587691421483     -4.19748050945841      1.75130424683956
  C   -1.28422318869065      3.31293558660679      0.95306631417480
  H   -1.99899634207382      3.49762891753775      0.15002520260005
  H   -1.09548703778984      4.27162997772325      1.43721702148057
  H   -1.75209391937248      2.65267178036511      1.68492518294430
  C   0.56397488480211      3.57565762280535     -0.73974993196897
  H   0.77402895683456      2.83368786623265      1.24415024609448
  H   -0.11849434633305      3.49907678892123     -1.58996442631758
  H   1.55157301178069      3.23541422123429     -1.04553370348716
  H   0.63198444211419      4.62673937306958     -0.45513754103945
