19
Coordinates from ORCA-job 309optt
  C   1.61530280681254      1.27073051615175      1.57309316416003
  C   2.17451739536932      0.04795822976640      1.81732844186844
  C   0.53498847322622      1.50228332779861      0.59304639876159
  C   0.07724247989649      0.33016490188827     -0.12759201527363
  C   0.67566718862647     -0.91000188152175      0.14843415316486
  C   1.70363312559374     -1.05922116669287      1.09979713975323
  C   -0.97350049003758      0.39721814776052     -1.11758302157084
  C   -1.32589169946298     -0.89013201622558     -1.76693804671250
  C   -0.72538884456698     -2.07890477610444     -1.47709116025400
  C   0.28713107508289     -2.09381845009277     -0.50908744722859
  H   1.96198770803708      2.14316055026690      2.11425390114082
  O   3.16295436331182     -0.05210341157966      2.74243880609453
  O   0.11130899849517      2.64142148839341      0.46164539925414
  O   -1.59013226354971      1.39434436982144     -1.46590705476647
  H   -2.11475255510563     -0.82023112388878     -2.50738886915424
  H   -1.01724710439245     -2.99266150682893     -1.97722279502730
  H   2.12662992626380     -2.04380647930951      1.27011940873138
  H   0.78508233181776     -3.02166238071654     -0.25387563155278
  H   3.47169708458203     -0.96014833888645      2.81948922861136
