28
Coordinates from ORCA-job 310optt
  C   -0.79564914095990      0.01256373968764      0.11897824005342
  C   0.68011116435643     -0.00506204580539     -0.00928031096029
  C   -1.47932671648667     -1.24586950498218      0.42688458273506
  C   -0.74129116368703     -2.32946378334410      0.77080715465562
  C   0.69125444111700     -2.30214063538111      0.78716471323792
  C   1.39307858571957     -1.20674185887124      0.41075843162906
  C   -1.50742077841900      1.15356824884694      0.03341545113254
  C   -2.94532796296457     -1.26336845635187      0.44149391886921
  C   -2.97206819236626      1.17449437204416      0.14269068294338
  C   -3.64237974661805     -0.12367531897165      0.31694228245564
  C   1.38366170982208      1.02713771427896     -0.51699194798692
  C   2.84176575383136     -1.22097097499014      0.36678123711941
  C   3.54285600969505     -0.18092784521812     -0.09676952337231
  C   2.85564929570233      1.02378777612431     -0.58850320892006
  H   -1.04031634131507      2.11983964662825     -0.10417011894939
  O   -3.59898940074852      2.21376608712490      0.06839525016998
  S   -3.82732427578299     -2.78358071083987      0.68981026216320
  H   -4.72422750963589     -0.11396354801392      0.33019596547195
  H   -1.24769828094754     -3.23908710612108      1.06715794206972
  H   1.22317185501342     -3.19700341555579      1.08766623803823
  H   0.90978027343009      1.91894593908525     -0.90596201335595
  O   3.46335928379789      1.97877416697547     -1.03327815159202
  H   3.33874801043536     -2.11870402610705      0.71666358992155
  H   4.62374057058197     -0.17665791302313     -0.14118005573221
  C   -3.44684777606150     -3.61931724989702     -0.87093515924395
  H   -3.95781646507591     -4.57953588854601     -0.83355265982016
  H   -2.37783250841618     -3.78516296416791     -0.98512980917819
  H   -3.82770069401751     -3.04004444460831     -1.70889298355442
