28
Coordinates from ORCA-job 313optt
  C   -0.77425005678526     -0.05654527252512      0.16079042410105
  C   0.69305939089082     -0.08550747370923      0.27136774010926
  C   -1.43334012361139     -1.33410317392499     -0.07094452874162
  C   -0.70923412885031     -2.41368167764343     -0.47365625541117
  C   0.70529843507494     -2.35157121445453     -0.62778436875579
  C   1.40171867685218     -1.24662280050266     -0.25624510669361
  C   -1.56359581485196      1.06359302746616      0.25986010567001
  C   -2.87097878149157     -1.45157484248130      0.06271240971171
  C   -3.03510465680947      0.92451093105377      0.54067577431973
  C   -3.63186782702534     -0.40432350924536      0.38744089418121
  C   1.40478378477207      0.85455273373498      0.93722326119528
  C   2.85051815251472     -1.24720817563712     -0.25670282576962
  C   3.55531405010108     -0.27438342265032      0.33255916127656
  C   2.87034958859943      0.83327197504338      1.01742467744639
  S   -1.16892485917845      2.74243464110505      0.06621892093293
  O   -3.69132277852510      1.88826992202919      0.87314738221454
  H   -3.30399852268976     -2.43319443147328     -0.09138454359587
  H   -4.70170274557032     -0.46953338125992      0.53189367293679
  H   -1.22466397261623     -3.34059857964807     -0.69333937480771
  H   1.23859461504252     -3.22217889538675     -0.99025557131685
  H   0.92250124439041      1.68126303211499      1.44230138459222
  O   3.48446517234688      1.70573274375325      1.60731396258491
  H   3.34532168598497     -2.09151791772350     -0.72358837007863
  H   4.63684744326229     -0.27175456358187      0.36150197604328
  C   0.28085374230403      2.76526430510358     -0.99444596441382
  H   0.18946232164655      3.69035646783979     -1.56068683697328
  H   0.26610745496438      1.91556908552017     -1.67448884467570
  H   1.21772850925791      2.77288046708312     -0.43889915608218
