20
Coordinates from ORCA-job 31optt
  C   -1.59193373350984      0.61708538646149     -0.00323919958367
  C   -1.65995694620544     -0.75002798459071     -0.00040331574737
  C   -0.36058460758277      1.29307150673976     -0.00292053591260
  C   0.81871981757420      0.55662740864998      0.00039444372112
  C   0.74978993343943     -0.86138611965813      0.00254409527036
  C   -0.48579252580338     -1.51537590684131      0.00249642965239
  C   1.97815319020346     -1.67001434992453      0.00280734449447
  C   3.27806943868724     -0.97668292634638      0.00000594688470
  C   3.35162254426138      0.34983302138122     -0.00124207163715
  C   2.14783575156133      1.22418503236818      0.00277281795594
  H   4.15114932475890     -1.61716037041766     -0.00112670703473
  H   4.29502077997786      0.88193813563700     -0.00304152098228
  O   2.30168067564531      2.42342059727012      0.00797652347343
  O   1.95350043107556     -2.89636970931698      0.00482562959799
  H   -2.50638620742688      1.20059777485693     -0.00562749877548
  O   -0.32694961080546      2.64214708524647     -0.00591838858986
  H   -2.60973780878641     -1.26750741989291     -0.00043741506274
  O   -0.61959727613408     -2.84411186410169      0.00499454198228
  H   0.28126990520165     -3.23490833202185      0.00561246318994
  H   -1.22576307613212      2.98703903450102     -0.01047358289676
