34
Coordinates from ORCA-job 324optt
  C   1.14108174577316      1.92829988368844      1.37651986708889
  C   2.08409949167107      1.00727659944264      1.02302823165214
  C   -0.19129682393308      2.00572787466225      0.77598743176339
  C   -0.46674251724238      1.00571233230456     -0.24470285922071
  C   0.51486900102347      0.03640709503126     -0.55063132903976
  C   1.78144965429771      0.05171423928505      0.03378375190294
  C   -1.70031925502267      1.03743966056824     -0.99143067251891
  C   -1.80735168349930      0.06406780524579     -2.11382208703872
  C   -0.89874885100423     -0.89139221057833     -2.38613819723633
  C   0.24149825191516     -0.98880728161189     -1.53358666620784
  O   -0.97386129105927      2.86913556902442      1.15311228192654
  O   -2.64542644023715      1.79082565051632     -0.82521404368099
  N   3.36721942475488      1.08300726387267      1.60115757108413
  C   4.23947484257606      0.08977431435969      1.95487937509142
  O   5.25201018376193      0.29439173583535      2.57245642985361
  O   3.85155879822435     -1.12822333939471      1.53968077492284
  C   4.72850992922350     -2.18556594110087      1.93377529259954
  H   4.79414789728994     -2.23628881157516      3.01873604315559
  H   5.72334854381187     -2.02502934555161      1.52300378896895
  H   4.28955007346917     -3.09576854988919      1.53556211840859
  H   2.57705550108920     -0.59273480423353     -0.30123201437775
  H   2.42730282949258     -4.81546253496582     -3.96632719415615
  O   0.36610342450372     -3.23970271477950     -3.46063061675321
  C   2.16063824983904     -5.12856902497103     -2.95897770391080
  C   1.06636720327795     -3.12303130505680     -2.50012709823823
  O   2.00834822709046     -3.98031274695529     -2.11482349778318
  H   2.95677487471006     -5.71407440510800     -2.51223759907278
  N   1.05361367791287     -2.06645412871340     -1.58105355283013
  H   1.23160905292631     -5.69417494871932     -2.98707337891565
  H   -2.71618205319798      0.14801968336174     -2.69879133316066
  H   -1.03968032173832     -1.61008090918905     -3.17578319827333
  H   1.74053636915808     -2.15847498249542     -0.84562961931437
  H   1.35178043873649      2.67460049111388      2.13469288052695
  H   3.61670155040529      1.96636778657672      2.01882682278401
