26
Coordinates from ORCA-job 325optt
  C   1.62181825293557      1.21039868100572      1.58746454776631
  C   2.20159694267398     -0.02765726266843      1.84299314627840
  C   0.51218928654697      1.38698748520835      0.58117190120256
  C   0.11683601933583      0.19028395182495     -0.10533608733363
  C   0.74298919503512     -1.04894860102170      0.18712001477056
  C   1.76608969176982     -1.13579611211605      1.15126008855948
  C   -0.93196624790815      0.24905486495921     -1.10011320935013
  C   -1.26690045587716     -1.07145131596403     -1.75782988635488
  C   -0.62984386100001     -2.24890465122466     -1.43655872977360
  C   0.37214429193916     -2.22390460777153     -0.46384312994937
  O   2.10161938936997      2.20801274446666      2.28371610631500
  H   2.98848488834681     -0.08604041566126      2.58237524856658
  O   0.04058381251564      2.50759011159591      0.42933157470881
  O   -1.55547063327021      1.23210671689956     -1.45066493119248
  O   -2.22202637331355     -0.95939920637002     -2.65342000954373
  H   -0.88867105247498     -3.18003257034716     -1.91889744008173
  H   2.21512649081552     -2.10285141630119      1.34396833924243
  H   0.88106225465498     -3.14395059520751     -0.20226147790329
  C   1.68600323305604      3.58181551234148      2.18824674032465
  H   2.32991688387420      4.09463242972277      2.89754937798129
  H   0.64028951751526      3.68486448228823      2.45904252042106
  H   1.83325543207943      3.95712753462577      1.18065253708060
  C   -2.65125102617991     -2.11520246575046     -3.35118272564972
  H   -3.43504321783866     -1.78292218724916     -4.02426039334753
  H   -3.04808778800947     -2.85791835333276     -2.65609047538736
  H   -1.82749492659221     -2.54650475395271     -3.92352364735025
