30
Coordinates from ORCA-job 327optt
  C   2.10732151563126      0.87795134090686      1.56479001722373
  C   2.67387294978535     -0.36294551104187      1.46573279104846
  C   0.83069769852688      1.25859813055217      0.87757138369623
  C   0.21453867684520      0.22143037430288      0.08897618857738
  C   0.84058202020469     -1.03763779806359     -0.00221170640201
  C   2.03894092411192     -1.32641541317148      0.66451218146431
  C   -1.02845360168056      0.44097967064895     -0.61994845764151
  C   -1.52291502750794     -0.71315806809639     -1.41088028663228
  C   -0.89046627085607     -1.91837123285127     -1.48261064698913
  C   0.30436934005857     -2.08848049419590     -0.77066595262377
  C   2.73179449485830      2.02987249304120      2.29927526257530
  O   0.42585832659017      2.39854743943207      1.04127089685031
  O   -1.69465786073584      1.46513836597624     -0.62520700670710
  H   -2.45114908229806     -0.53039035342247     -1.94064919821339
  H   -1.29519712221997     -2.72935628455099     -2.07311535840784
  H   2.49676005340740     -2.30376312946563      0.57343582084816
  H   0.83455270599910     -3.03258087814218     -0.80280808631869
  O   3.56523897532404      2.72316051509793      1.79457331275854
  O   2.21146943452838      2.18295762792123      3.50481514104917
  C   2.67221030553224      3.33296107338477      4.21943308103993
  H   2.43072348639552      4.23445381444695      3.65933190266011
  H   3.74990983049920      3.27445981171154      4.36600698185956
  H   2.15048718997256      3.31770721887773      5.17057348399906
  C   3.94258349407184     -0.78935778007030      2.14008079579443
  O   4.49317869206906     -1.82693105934905      1.88772965684383
  O   4.37057587270545      0.08509524703659      3.04001965859140
  C   5.59692250672327     -0.24899561258733      3.69438894567286
  H   6.39243609832513     -0.35677431941787      2.95963510461889
  H   5.48372434848860     -1.18177299522980      4.24390481415660
  H   5.80406002464423      0.57522780631902      4.36879927860740
