26
Coordinates from ORCA-job 328optt
  C   -1.04582996244869      1.96088905984221      0.63468975293937
  C   -1.97862992354819      0.83226974495045      0.63133070881248
  C   0.27097337568196      1.77445878793230      0.43290609677111
  C   0.82264664654547      0.45517056732048      0.20811465020785
  C   -0.09196174803224     -0.66662682830371      0.20604193882978
  C   -1.41183901031703     -0.49815282125398      0.40278578779825
  H   0.25811344144962     -1.67166379579543      0.03588486731449
  O   -3.17779617546555      0.99398399063205      0.81151048361141
  C   2.18501872718137      0.27114620606868      0.00275289566333
  C   2.74287559352630     -1.05267752470571     -0.17530245166178
  C   3.09371163734467      1.39694337919223     -0.04088696915348
  C   4.41322756230427      1.22816409497144     -0.24019715178101
  C   4.98665012614212     -0.10710134832475     -0.41750274640549
  C   4.06038532263302     -1.23994535072512     -0.37150870584746
  H   2.11759616449298     -1.93006578823649     -0.14537099616805
  H   2.73650483649100      2.40713893098275      0.07557443476003
  O   6.18596707934678     -0.26923842826464     -0.59644085754802
  O   -1.59150530416316      3.16494617834284      0.85131880755756
  O   -2.28795237413342     -1.51157530588670      0.40240520172054
  O   5.28268969303758      2.24592200867803     -0.29261371525646
  O   4.61303307996436     -2.44927701401605     -0.53364334364391
  H   -2.54655762808526      3.03271713715714      0.96649034343307
  H   -3.16752009679097     -1.13278415781856      0.56312499170536
  H   5.56723052927165     -2.31686923645669     -0.65548016183397
  H   6.16319702888124      1.86567523295090     -0.44454460722016
  H   0.90349137869004      2.64689228076635      0.45474074539518
