26
Coordinates from ORCA-job 333optt
  C   -0.81491947648444      0.04448529558050     -0.24346896022653
  C   -0.70878953305704     -1.28735558270332     -0.37336048857204
  C   0.33386049479042      0.87638921002720      0.05091034467593
  C   1.56133092239296      0.33680993748254      0.19607124478260
  C   1.75555029864967     -1.08159008809358      0.05358178917010
  C   0.59073091237383     -1.96690470415917     -0.22482260502863
  C   2.99320262181916     -1.61002581302085      0.15329874288510
  C   4.16531706537370     -0.79700109992222      0.38185036738590
  C   4.06010450949023      0.56065197905316      0.53130515771660
  C   2.72959743905333      1.20972479741219      0.51235849628243
  S   5.48462686795408      1.49447490542125      0.91066337871101
  O   2.57933635075920      2.39025649007810      0.75415581089326
  H   -1.77932925523490      0.52505918660074     -0.35249871625095
  H   -1.56064836054960     -1.91999266409348     -0.58521278630535
  O   0.69823319401706     -3.17286272475134     -0.32902271834612
  S   5.75340660453622     -1.53109151620799      0.49120797283335
  H   0.21456396179849      1.94667154329784      0.16253627115611
  H   3.08584888102108     -2.68050190639878      0.03306404097377
  C   5.45800707418320     -3.26780577659199      0.10966990831776
  H   4.84582587583874     -3.75365962788723      0.86585287997400
  H   6.44836882515283     -3.71916595561295      0.11851272358948
  H   5.02379501796456     -3.39521557305922     -0.87944647676903
  C   5.23751548489391      3.06678415759242      0.04879238012268
  H   6.23558502658907      3.49050012065445     -0.04697629285415
  H   4.58934441249177      3.72763561758662      0.61135647476965
  H   4.82711478418237      2.88979979171515     -0.94191893988694
