14
Coordinates from ORCA-job 34optt
  C   -1.78209189986684      0.18888676387301      0.00000080083525
  C   -1.90370897791515     -1.14175370641752      0.00000029808775
  C   -0.45834949239605      0.83608532613222      0.00000415599527
  C   0.74018102978406     -0.02093854962832      0.00000060495182
  C   0.64046349698135     -1.35334121938243      0.00000038460016
  C   -0.69720585222778     -2.03561310075975      0.00000011377284
  H   -2.63908019511256      0.85193812979516     -0.00000020283128
  O   -3.04667742047532     -1.83645865020553     -0.00000075233152
  O   -0.35785028687639      2.04480285839475     -0.00000292208524
  H   1.69519650193911      0.49097844059865     -0.00000054098169
  O   1.65357934347316     -2.22673517862781     -0.00000036604658
  O   -0.79654815251516     -3.22935130212045      0.00000031861301
  H   -3.80100444729200     -1.23589441892438     -0.00000093531985
  H   2.49650635249958     -1.75869539272761     -0.00000095725994
