24
Coordinates from ORCA-job 356optt
  C   2.18093348555412     -1.17341060890514      1.66286223496907
  C   3.03105116128610     -2.27503623006322      1.69208448992700
  C   2.23481309631689     -0.21323017257420      2.66404296694385
  C   3.93412011698212     -2.41610015895342      2.71739173284199
  C   4.00522920497349     -1.45529792182426      3.74459465320663
  C   3.13853872281307     -0.32501946185665      3.73022236859389
  H   1.46640855759409     -1.04750672223953      0.86177702484726
  Cl  1.12824535753028      1.09913159796134      2.49575291232101
  C   3.22975028463103      0.66769569998453      4.83366842557635
  C   4.94847910533468     -1.63464814055617      4.78313224681288
  C   5.07741004129138     -0.71848574103802      5.84818905625421
  C   4.24264145743103      0.41540510347530      5.88697694530257
  O   2.52025846182546      1.65299394625175      4.90159575356268
  C   4.36195724553165      1.32566781770702      6.93464474375791
  C   6.02356393052350     -0.91480153791004      6.87567282794889
  C   5.28888560880069      1.13007803079242      7.93754526023235
  C   6.11461966327236      0.00070821744639      7.89417321431765
  H   3.70883253768229      2.18797476833858      6.94097779207984
  H   5.38784867420176      1.83155351819535      8.75401077029815
  H   6.67169034957023     -1.78106363534440      6.85975901494689
  Cl  7.27248547275001     -0.23789304037815      9.15748623431458
  H   2.97511912730781     -3.01416714640537      0.90404205627590
  H   4.60324569039314     -3.26640576479051      2.75128168946996
  H   5.58999264640275     -2.50662241731361      4.75447558519839
