28
Coordinates from ORCA-job 357optt
  C   -2.08113663251593      2.70392867306755      0.20438891798365
  C   -3.38037644820907      3.24675987470748      0.12558860468440
  C   -1.94098248580597      1.28488223815819      0.59897552986376
  C   -3.15191382865586      0.53652739763365      0.77087446407413
  C   -4.40509581608349      1.08951816745884      0.64348380177425
  C   -4.49904964379602      2.48557248589876      0.32987833520987
  O   -0.82556500630987      0.78505717123115      0.81266125336791
  N   -0.98768869505212      3.46825767610018     -0.02301154259364
  H   -3.00250062036519     -0.49490089097729      1.05091248502101
  C   -1.11785929161882      4.90856430772541     -0.11799423708054
  C   0.33092781778620      2.92401671589306     -0.33095867055016
  H   0.24139383974176      1.96626478009165     -0.83055783630004
  H   0.92194530203775      2.77297926177879      0.57303623203380
  H   0.83696269178321      3.63399315735294     -0.98514697803613
  H   -1.76136742671193      5.28712270002677      0.67557804687210
  H   -1.53048904527798      5.21911325171576     -1.08400300101720
  H   -0.13354500889824      5.35579674364967     -0.00268158798742
  N   -5.55863898671797      0.35016994468512      0.79684115736165
  C   -5.43447191165661     -1.02061522106569      1.23833207979474
  H   -6.41896161794013     -1.48114652898791      1.25647320545242
  H   -4.98879264798818     -1.09734671134767      2.23813109162890
  H   -4.80878440743582     -1.58590012631900      0.54608375090331
  C   -6.82365039912129      1.02177925105153      1.01459620215935
  H   -7.59513529993233      0.27221088721961      1.17055413451900
  H   -7.11423733559921      1.61233448091783      0.14447349861061
  H   -6.80304765221783      1.68170786531861      1.88958666740964
  H   -3.51403386917650      4.28545644579739     -0.14095053713949
  H   -5.46531557426232      2.95517600121749      0.22825493198012
