24
Coordinates from ORCA-job 359optt
  C   2.18820934017971     -1.11194346602030      1.73480453962791
  C   3.02453550233021     -2.23602561907401      1.71699487207544
  C   2.26376452361244     -0.18087556604665      2.74929069037826
  C   3.93788960762992     -2.41347768255458      2.72486990104027
  C   4.04697174169151     -1.48006736662309      3.77969396328996
  C   3.18865854734385     -0.35633506953267      3.77382050045453
  Cl  1.04651575741537     -0.90085853458396      0.45544218672515
  H   1.61870425667367      0.68723864537256      2.76741214038584
  C   3.26017742699244      0.65240863053757      4.85476386256633
  C   4.98548541292183     -1.64996287654409      4.82006147588123
  C   5.09938297330202     -0.71891703317496      5.87875179442296
  C   4.26039238534453      0.41868971477884      5.91667630046502
  O   2.52836870571967      1.62758622294287      4.86398749456040
  C   4.37374737966071      1.33372094339913      6.96076347602008
  C   6.04280969907710     -0.89766296777515      6.91327936496965
  C   5.30360146095180      1.13884885106669      7.96334764737742
  C   6.14116660622967      0.01600015773588      7.93554553283636
  H   3.71571833078861      2.19272107321974      6.95909740318195
  H   5.38713092682636      1.85310916459121      8.77160562938521
  H   6.68904033196989     -1.76666871507151      6.88904467717763
  H   6.86898119495240     -0.13184136009272      8.72268358662206
  H   2.93983685685307     -2.94920210158412      0.90873042128529
  H   4.58877703044424     -3.27902770655838      2.71812430360244
  H   5.63623400108891     -2.51594733840834      4.80755823566851
