28
Coordinates from ORCA-job 363optt
  C   2.70300950691425     -1.53722386262959      1.85974460644226
  C   3.40567492900521     -2.72757238983556      2.08865199338046
  C   2.79780610550565     -0.49568861426399      2.76085024134907
  C   4.19567628096133     -2.86815993938024      3.20527176161084
  C   4.30854943349994     -1.81109076611611      4.13260692299771
  C   3.59289572270594     -0.61522484822544      3.89933859574643
  H   2.26278234700184      0.43292739207280      2.61152196619263
  C   3.67468293339637      0.51595780701043      4.84651769061749
  C   5.12592513376028     -1.92930752246795      5.28831962109894
  C   5.22338904419523     -0.88600089775142      6.24729578600748
  C   4.51918260038089      0.32202046193192      6.04334710636707
  O   3.07208781874153      1.55913784833611      4.65083700575367
  C   4.62072606361078      1.34894830039681      6.98017355397276
  C   6.01470428249654     -1.02926966302815      7.40640698122927
  C   5.40343419222780      1.19484731565278      8.10683234050582
  C   6.10037740753347     -0.00233065290275      8.31684067944987
  H   4.06900447079346      2.26105092645042      6.79405972421274
  H   5.47714550009539      1.99550718005366      8.83068769182840
  H   6.53623319630014     -1.96237228487862      7.57157601663767
  H   6.70683374873284     -0.12167018592593      9.20540052789039
  H   3.32196989866716     -3.54462146440094      1.38371571234218
  H   4.72623323703465     -3.79108466976388      3.39707962464843
  O   5.82763916371485     -3.07523859640173      5.48642425178726
  H   2.08347490614610     -1.43821659467423      0.97833408570848
  C   7.13140738059149     -3.06359761058452      4.90797453576851
  H   7.06772449635320     -2.92520903145903      3.82595181844830
  H   7.58124726163256     -4.02743940542167      5.13229120229796
  H   7.73379293800074     -2.26154823179307      5.34139795570743
