32
Coordinates from ORCA-job 365optt
  C   2.33489121105656     -1.24832089996033      1.84029925637358
  C   3.22979812892098     -2.33350508110996      1.83845064335261
  C   2.37526253311925     -0.29643285758956      2.84797507823476
  C   4.15648048245612     -2.45175095850423      2.85407916493674
  C   4.21989031713091     -1.49535039774440      3.90796122916514
  C   3.30213323868801     -0.41422324640759      3.86796687957163
  O   1.40116060332402     -1.06855830119151      0.88203580643754
  H   1.68605542672762      0.53634164427319      2.84069710321152
  C   3.32515551135689      0.61612541916244      4.93220946484931
  C   5.14904744346361     -1.61300804668639      4.94849191503652
  C   5.20264255799633     -0.66144915421601      5.99735967609585
  C   4.31553560056469      0.43807044379674      6.00978981986670
  O   2.55754080095985      1.56587639788217      4.91231464109219
  C   4.37198963424765      1.36887983550080      7.04790680122596
  C   6.13540901005260     -0.78705489665792      7.04901444009462
  C   5.29075234771402      1.22545584749090      8.06696104013477
  C   6.17683394322268      0.13867326250499      8.06360464082561
  H   3.67690626796883      2.19800510082227      7.02492035943232
  H   5.32930824914963      1.94975541768142      8.86981246885472
  H   6.81856133718843     -1.62777537584913      7.04392291577276
  H   6.89683771348322      0.02960165953406      8.86437669574041
  H   3.19234335525399     -3.06638944930661      1.04942410415940
  O   5.05258014795753     -3.45697722709230      2.92990837755152
  H   5.83727189404553     -2.44656284055425      4.95528264378590
  C   1.30918602915328     -2.01050944817736     -0.16412307266759
  H   0.49944998278655     -1.67189372053138     -0.80406784034252
  H   1.07444080574723     -3.00652520313949      0.22033059299441
  H   2.23543141034946     -2.05032710320174     -0.74332816516662
  C   5.04912206999256     -4.44095636749533      1.91862153283116
  H   4.09213140537526     -4.96787370918475      1.88707489021320
  H   5.83944401810892     -5.14070050946624      2.17473542742933
  H   5.25671652243773     -3.99904023458243      0.94080146890647
