26
Coordinates from ORCA-job 366optt
  C   2.32944779892235     -1.31026418638203      1.78794263944090
  C   3.19291579760576     -2.39542073854693      1.85247904346325
  C   2.36323912668206     -0.32312207237054      2.76750946414393
  C   4.09452017091242     -2.50864947605136      2.88420314509998
  C   4.15377170184516     -1.52392619004578      3.89171455289285
  C   3.27181596918059     -0.40645203217709      3.84144081270454
  O   1.52088877652662      0.72353613892217      2.69399181051377
  C   3.31470990975300      0.63268283959119      4.89285511570865
  C   5.08574027595358     -1.63320922270339      4.96244920643549
  C   5.16452262366581     -0.67144147392140      6.00422463578356
  C   4.30105438135587      0.43832061692322      5.98089696137614
  O   2.58918202260586      1.61150845235837      4.89437402476100
  C   4.36900774069599      1.38699300606713      7.00091686746576
  C   6.08950159335893     -0.80584233468262      7.06033903197966
  C   5.27615445885429      1.24479189313116      8.03033688461699
  C   6.13868227008022      0.14121986783188      8.05536765506790
  H   3.69102365209277      2.22855345084529      6.95368588917004
  H   5.32301029453462      1.98438563240672      8.81864092672004
  H   6.75297679959339     -1.65852237344620      7.07551057470762
  H   6.84995874514818      0.03282884209660      8.86394363477247
  H   3.15292613817023     -3.15655983638422      1.08443607576951
  H   4.74302710450311     -3.37524035338195      2.89201265240887
  O   5.94891818324919     -2.66166845147397      5.05203889152855
  H   1.61962371190989     -1.22288255738477      0.97365063724872
  H   0.96930196305051      0.63137098224015      1.90986818412464
  H   5.85197878974942     -3.26049042346162      4.30642068209494
