32
Coordinates from ORCA-job 367optt
  C   2.38229130640786     -0.94957667857682      1.62127795853794
  C   3.21833328003013     -2.07324145966805      1.57239677892778
  C   2.42015148478765     -0.08311272677359      2.69222773335199
  C   4.09635748949556     -2.32420406005002      2.60653480697613
  C   4.16184644888369     -1.44343801617459      3.72500803282201
  C   3.30321766107435     -0.32200258192427      3.74314176373368
  H   1.69992199976426     -0.76937413891666      0.80094562276109
  H   1.78035233451911      0.78682816610972      2.74503130573340
  C   3.33377323763088      0.61512515525548      4.88459430136252
  C   5.06060220189380     -1.68253086678532      4.78377410738060
  C   5.12573461236844     -0.81452951439820      5.89203737855515
  C   4.28824631247678      0.32000298386483      5.97269750966297
  O   2.60143482103629      1.59210756791433      4.92738390917464
  C   4.34876900036603      1.17413757630168      7.07181354169146
  C   6.03704720657488     -1.05686055866732      6.96062994908765
  C   5.23666870199160      0.91213922810078      8.09245341816790
  C   6.08514771116065     -0.20219561133314      8.04270530518722
  H   3.68948231458580      2.03066078018154      7.09481126325177
  H   5.28810164802947      1.57076797989527      8.94953166713837
  O   6.81583018396030     -2.15198189780880      6.82405102797269
  H   6.77205906871716     -0.38048747123687      8.85671771002275
  H   3.16528330461341     -2.73481441930267      0.72053001415336
  O   4.93584272965985     -3.38166994498259      2.64844237209085
  H   5.70886280639820     -2.54367258765478      4.74533004636241
  C   4.92507766579791     -4.28032388467849      1.56066327344038
  H   5.66506909981105     -5.04185391068336      1.78981910269995
  H   5.19746277542677     -3.77391930467827      0.63124420277653
  H   3.94357014648275     -4.74725821559263      1.44692164718702
  C   7.74161069741297     -2.43965105819911      7.84929970949284
  H   8.25879636846714     -3.34511420818693      7.54490284094538
  H   7.23239026862487     -2.61210925868291      8.80076674110201
  H   8.46380511154988     -1.62751706266809      7.96452495824906
