26
Coordinates from ORCA-job 368optt
  C   2.31239553818625     -1.29752705546930      1.85388701010265
  C   3.17802694382441     -2.40878079934783      1.89518721102376
  C   2.37088165836680     -0.32986954844424      2.83004912498304
  C   4.08600593482628     -2.51459766513570      2.93632873736291
  C   4.15207233541402     -1.53405432251555      3.94140129359289
  C   3.28019738084974     -0.42343913429952      3.88311129320054
  H   1.71112920233668      0.52770408713132      2.80296345543416
  C   3.31933528608117      0.62923809712679      4.90969495068414
  C   5.07976475878481     -1.64342079570608      5.00765932364576
  C   5.16124504083823     -0.66709290645842      6.02764557255400
  C   4.30548345220991      0.45838277672393      6.00273630374905
  O   2.57961759900055      1.60004758608056      4.86965173951905
  C   4.38647192058686      1.41664542024742      7.00837864997397
  C   6.08740386443972     -0.78831450751805      7.08569497446873
  C   5.30059509225731      1.27842866247391      8.03649125573531
  C   6.15382415490522      0.16854277079213      8.07126450306838
  H   3.71584466790119      2.26451585391495      6.95773782095460
  H   5.35846646371597      2.02699318714472      8.81553406904226
  H   6.74579930249467     -1.64825689294597      7.10967738024942
  H   6.86823941219210      0.06412661283433      8.87751159451844
  N   3.07484066716903     -3.39759229104450      0.93234816644655
  H   4.75480194688899     -3.36676303637072      2.98344358100616
  H   5.74407230695931     -2.49853511070762      5.04364013679825
  H   1.59671875007297     -1.21673856215403      1.04453387747677
  H   2.65496554455103     -3.12643252687526      0.05838319930951
  H   3.87433077514664     -3.99910989947731      0.81990477509957
