24
Coordinates from ORCA-job 369optt
  C   2.11486779727981     -1.24937100676860      1.75430982291697
  C   2.99790154312067     -2.32614692919325      1.74656928634064
  C   2.22344765837980     -0.25483878924092      2.71638829443498
  C   3.96914461916458     -2.42365392249237      2.71328208849155
  C   4.08130469326532     -1.43461471281536      3.70915233599780
  C   3.21607712382995     -0.30993848084219      3.70334415079683
  H   1.33089742989493     -1.17198160332901      1.01435043218458
  Cl  1.04075127626945      0.99895011206853      2.63803834717043
  C   3.43378604091535      0.77757982503604      4.69923463403185
  C   5.04730919400098     -1.57442055165119      4.72929194045699
  C   5.14178168706556     -0.67999983356403      5.81784572770615
  C   4.30673223043906      0.46631168410568      5.86692998269404
  O   2.96729508967226      1.88378023296494      4.53683496827969
  C   4.38532395597849      1.28289328656720      7.00252816347503
  C   6.05264723135241     -0.94201661855586      6.85921895423756
  C   5.27444910760084      0.99733833771692      8.02932440516224
  C   6.11695916042596     -0.10852237912178      7.94923282033306
  Cl  3.37346293520915      2.65923489160597      7.24565571466981
  H   5.29796113462479      1.64882779650552      8.89138531741856
  H   6.68925171433302     -1.81489518387008      6.79029117850518
  H   6.81083662602762     -0.30990190915609      8.75448129876739
  H   2.90473147851146     -3.08702506126023      0.98321558214734
  H   4.65159139506496     -3.26378896689705      2.73092083103140
  H   5.70759887757350     -2.43228021781277      4.70452372274981
