32
Coordinates from ORCA-job 375optt
  C   2.56603443957063     -1.24477222559782      1.41210572821833
  C   3.35184283238474     -2.38716652491108      1.52414900985548
  C   2.57821258865821     -0.24821248484092      2.38903796111692
  C   4.13372628529479     -2.57252316362339      2.63915556418004
  C   4.19094880582088     -1.58333318247076      3.63841683316295
  C   3.44176062478079     -0.38156184623702      3.49658480805380
  C   3.69423239202153      0.70634859503322      4.46500810832474
  C   5.01881403751436     -1.80538240691176      4.76555334565701
  C   5.17697848102567     -0.85320554167255      5.78709224084642
  C   4.53785694643854      0.39995136017029      5.64844530803335
  O   3.26911214698052      1.83949016713227      4.30941470923877
  C   4.69427893860140      1.38643100701458      6.61595838671288
  C   5.97656583733469     -1.09343533787413      6.94772291843585
  C   5.47306141267788      1.13847730205270      7.72794088541910
  C   6.10968797429247     -0.09528189879049      7.89346009578932
  H   4.19746236864475      2.33528737534256      6.46988668711295
  H   5.59681432995641      1.90049158241023      8.48618967394606
  S   6.73667534954671     -2.67022655988012      7.09798617624227
  H   6.70759044481060     -0.25308946272486      8.77877497928644
  H   3.31378879712390     -3.14156759860533      0.74928737462217
  H   4.71918913061105     -3.47487087396977      2.76272278946220
  H   5.54618031188461     -2.74885877302090      4.81655243091024
  S   1.47374005475518      1.08380381708279      2.04708251346841
  H   1.89804064522734     -1.12973182167307      0.56859777585769
  C   0.62455727455860      1.39817678428880      3.60814254678659
  H   -0.41177694877796      1.60907737971250      3.35106570951138
  H   1.07283474906066      2.23331548307725      4.13496699010957
  H   0.66253988153948      0.50569102181515      4.22992486214278
  C   7.66220424610850     -2.52522389948554      8.62930833145717
  H   8.16897564993340     -3.48020199372098      8.75122521895280
  H   7.00119778740446     -2.36303762142685      9.47877424277708
  H   8.40626218421496     -1.73307865769502      8.56722579430904
