24
Coordinates from ORCA-job 381optt
  C   3.23272554452461     -0.63995363974664      2.86429754577510
  C   3.95667533860596     -1.83196893748761      2.63410035989838
  C   3.56919402776174      0.18728905020209      3.89925438661808
  C   4.64730968077627     -0.14809467373857      4.74931031168110
  C   5.37922623464023     -1.34302046690089      4.52687393317006
  C   5.00188745747011     -2.17497707146889      3.44230284379349
  H   2.40632504358600     -0.38390009670158      2.21478893454766
  H   3.67643944568086     -2.47442980226255      1.80965330128431
  H   3.02101706795228      1.10070995835063      4.08292492621504
  H   5.55907179439407     -3.08741419262133      3.26914295026864
  C   5.02702776272324      0.67775453464515      5.83419315116107
  C   6.06165696996399      0.37635183876692      6.68383140022722
  C   6.79387224632505     -0.83511248677266      6.43760232480113
  C   6.44756023601979     -1.66088431396234      5.38198993883459
  F   4.31692673712270      1.78666160860089      5.99501512997542
  H   7.01049545032968     -2.57093434316656      5.21095710850506
  C   6.43727590895607      1.24523566683726      7.83053918345840
  C   7.88257819008762     -1.17529589074140      7.29223902537044
  C   7.56646622079850      0.79805000784405      8.63110447847505
  C   8.24828346331872     -0.36499233926539      8.35924787483586
  O   5.84458026394644      2.27832248580627      8.10764691429441
  H   7.83560201893987      1.43792103629248      9.46063400550798
  H   8.42531558788269     -2.08952146830154      7.08990697166945
  H   9.08201730819346     -0.65784646420777      8.98479299963196
