24
Coordinates from ORCA-job 390optt
  C   2.13135501351538     -1.07712077099425      1.70693774493586
  C   2.98140737033047     -2.18869009300242      1.70838903157903
  C   2.22810453297073     -0.15544815561124      2.72934591510942
  C   3.90719335485337     -2.38322679614525      2.70396676779906
  C   4.01141452208871     -1.44679987877073      3.75310012478197
  C   3.15632408684038     -0.32205187878718      3.75359526578501
  H   1.41294879380603     -0.95599439211658      0.90840182470236
  H   1.58597984391469      0.71509384558321      2.75732480645339
  C   3.23493255515187      0.68417555632384      4.83323724042036
  C   4.95385944015657     -1.62415060926052      4.79407293199779
  C   5.06826810579960     -0.69588469858950      5.85624443939711
  C   4.23484652117431      0.44429549709004      5.89477868843796
  O   2.51064025530802      1.66441736964101      4.84766933099175
  C   4.35231970651398      1.35479475183800      6.94151132914468
  C   6.00814513211540     -0.88972829009316      6.88948627450580
  C   5.27430551332450      1.15781122791034      7.94906306847661
  C   6.09664910684849      0.02639737385457      7.90884908612008
  H   3.70095681883425      2.21884357099179      6.94343262844221
  H   5.37166302649127      1.85924119795083      8.76574630522436
  H   6.65561140165599     -1.75660931810681      6.87885149389047
  Cl  7.24827807885784     -0.21623477318067      9.17662746127472
  Cl  2.85551059535110     -3.33915381353037      0.42249314173211
  H   4.55367113128346     -3.25068033838953      2.68473573422504
  H   5.60173509281358     -2.49176658460541      4.77847936457278
