32
Coordinates from ORCA-job 393optt
  C   2.33048028376884     -0.97447555896174      2.07965731467904
  C   3.16024400031259     -2.10945176840072      2.11131806168481
  C   2.42111957255606     -0.02361288530363      3.08648506485921
  C   4.05820772738222     -2.26972875444550      3.13977255494716
  C   4.17145087748334     -1.31949001089409      4.17459344253428
  C   3.32448370623358     -0.18269505065007      4.12467984983826
  O   1.42267573804401     -0.73641511743565      1.10693017949563
  H   1.78344049252961      0.85017788580042      3.06521947813928
  C   3.39134782146931      0.85127168815063      5.18024708984708
  C   5.09021283668788     -1.47821402055906      5.23186289812125
  C   5.19557590965833     -0.52602898051221      6.26594049804113
  C   4.36987755141519      0.62734068248451      6.26635191584714
  O   2.67511559658373      1.83916191459409      5.15600828731400
  C   4.46843357213992      1.56247750121672      7.28387990193991
  C   6.11134996051073     -0.67953990081149      7.32641553668404
  C   5.37692306033687      1.38539323369122      8.31790088298087
  C   6.20709405332560      0.25043254781866      8.33437038211566
  H   3.82976440894816      2.43565354648363      7.26766344061395
  O   5.40173643787811      2.34632784072896      9.26816759638614
  H   6.75180122041612     -1.55318993754429      7.34245340933325
  H   6.92042291644055      0.09940915272704      9.13140020974170
  H   3.10068502655750     -2.85903283007533      1.33579495008962
  H   4.69641245280127     -3.14493140770249      3.16077726258903
  H   5.72962292794862     -2.35278406059047      5.25058598119351
  C   1.29351499534335     -1.67987816109431      0.06582555431984
  H   0.51979646433020     -1.29740609853932     -0.59375115766962
  H   0.99027043901424     -2.65624818969658      0.45262358324294
  H   2.22762354146486     -1.78313646385305     -0.49239542119213
  C   6.31970220734401      2.21347933164386     10.33139148254047
  H   6.12520668145707      1.30738381162285     10.91105083181644
  H   6.17599684927868      3.08418782539266     10.96480774623238
  H   7.34932067033934      2.19746223471475      9.96465119169362
