27
Coordinates from ORCA-job 397optt
  C   1.38113517658042      0.16752677152542      1.94860012519866
  C   1.39261748283275      0.15127727789061      0.54813084634725
  C   0.20176595615424      0.39444410248935      2.60878324562577
  C   -1.00260355064870      0.61053392536530      1.89626581347494
  C   -0.99309317771969      0.58814261312519      0.46933442517493
  C   0.22987157740306      0.35672275026612     -0.17059078676559
  H   2.32108775647528     -0.02343556761089      0.02033333316086
  H   0.28022216835540      0.33574760804244     -1.24980391939634
  H   2.29657640035517      0.00475347250143      2.50132964070434
  H   0.16943488751667      0.41557883644457      3.69126178662660
  C   -2.19885364772436      0.85280327860271      2.58351355591731
  C   -2.23709848708352      0.81698412261449     -0.26372474499464
  C   -3.42974455794887      1.08997608205329      1.88177424156650
  C   -3.37257585666302      1.06017467961510      0.42279812255620
  O   -4.48603904832150      1.30823879531393      2.48750364003594
  C   -2.22733018545480      0.73955730906319     -1.77743411524919
  H   -4.31334342853415      1.24721669373846     -0.07703032867133
  H   -2.22650543729925      0.87274818782634      3.66576633986395
  C   -2.15080488718416     -0.72543498497816     -2.22842907314473
  H   -2.06364994043272     -0.78565527692479     -3.31426997700063
  H   -3.06254870739843     -1.24631177295828     -1.92993422260796
  H   -1.30625140559493     -1.25176427220737     -1.78450487813622
  C   -3.42386734832709      1.41880140324415     -2.43557860130889
  H   -1.33089668895510      1.25780556867267     -2.12875788828576
  H   -4.35023276121361      0.88109313553822     -2.22694825904433
  H   -3.28922136165609      1.42778299337472     -3.51758500498068
  H   -3.54049092751292      2.44792226737175     -2.09495331666692
