30
Coordinates from ORCA-job 3optt
  C   2.17022121855613      0.78728532734503      1.50912840997176
  C   3.21820450646516     -0.06114109628031      1.26577210342021
  C   0.89325886219332      0.60227037594532      0.81323069207029
  C   0.76781187305080     -0.60490443043858     -0.01069847138709
  C   1.85353335982117     -1.43172374932753     -0.23520723771390
  C   3.07754371605094     -1.15385277515337      0.40635414195110
  C   -0.56409789028587     -0.97682913089409     -0.56487138329384
  C   -0.53488601851287     -1.84197591036640     -1.85467296387530
  C   0.63783946424796     -2.72743128246222     -1.83702380912957
  C   1.73956074920301     -2.59273866326384     -1.13489826595358
  C   2.41339384982138      1.92211398400459      2.45205494398833
  O   0.01174561587977      1.45574749779327      0.83606252509051
  O   -1.60182602868444     -0.68263767717479     -0.04699013470890
  C   -1.86075030597910     -2.57518130598704     -1.96207076498031
  H   3.91898769606362     -1.81283391761929      0.23437376930838
  H   2.57827534396830     -3.27408490851019     -1.21391421319440
  O   3.50498401233040      2.40159173031309      2.61777677789047
  O   1.32741797703287      2.29295128685349      3.11348158476577
  C   1.51272806807697      3.36212311752492      4.04110917773344
  H   1.87068829892742      4.24953729965168      3.52173182122430
  H   2.23711791083527      3.07874378277119      4.80336080317933
  H   0.53715543064122      3.54060181166339      4.48102973817524
  H   4.16620940388180      0.13360461194846      1.75080936226974
  O   -2.07952337675096     -3.64028706534454     -1.46396905354284
  O   -2.74207271938219     -1.86128017635441     -2.65587101885452
  C   -4.06356585302709     -2.40457254458861     -2.69787631706852
  H   -4.65235964993510     -1.70568888747731     -3.28284770396073
  H   -4.45795533945888     -2.49076592171062     -1.68684492514064
  H   -4.05093999551612     -3.38772429866078     -3.16522096140267
  H   -0.44944017951493     -1.13676708420047     -2.69061862683207
