32
Coordinates from ORCA-job 400optt
  C   2.19865179860356     -1.33612624051950      1.51632520596524
  C   2.88609354932775     -2.54493845448012      1.66746517760561
  C   2.36082517250704     -0.32376689309767      2.44751310142442
  C   3.73600366048303     -2.72651306586095      2.75872730018632
  C   3.90266791647504     -1.70256916988965      3.71047816902053
  C   3.19779981537263     -0.48529299612744      3.53977885210633
  H   1.53590596300589     -1.18778827938231      0.67655240207619
  H   1.83403806004127      0.61515183448128      2.34031947000139
  C   3.35093247826944      0.61443496777435      4.51209540341402
  C   4.75798425909475     -1.88371381856801      4.82259017840150
  C   4.93403545774286     -0.86435007836847      5.78834629662585
  C   4.25378074068916      0.36854445429173      5.65947114727603
  O   2.76523701294561      1.67632083944529      4.37848165775077
  C   4.42754397854579      1.36431056121837      6.61668042193993
  C   5.78430298628786     -1.05234045281256      6.89921376143961
  C   5.26436082108391      1.15883719960225      7.69734685697790
  C   5.94484050043372     -0.05762520588167      7.83504704717542
  H   3.88967277117064      2.29427984355275      6.48647169730159
  H   5.39437440230615      1.93602885597175      8.43869526162560
  H   6.30749322810968     -1.99506409653361      7.00357848506401
  H   6.59901339952742     -0.21522916612181      8.68275774639362
  O   2.78516852954531     -3.58919467322014      0.81491493923339
  O   4.37984233870744     -3.91298750993689      2.93854258962290
  H   5.27341750144132     -2.82715703188983      4.93908367183370
  C   1.88657612767012     -3.47530369716369     -0.26895547464601
  H   1.93708868599138     -4.42054150598372     -0.80183217903762
  H   2.17686247819218     -2.66308589737772     -0.93995141437529
  H   0.86577083397817     -3.30994594130303      0.08360527898774
  C   5.49045298489458     -4.11332512351261      2.07135961717821
  H   5.90163077219394     -5.09003243014169      2.31440572296407
  H   6.24633200187183     -3.34194996470709      2.24347858706661
  H   5.17603977349035     -4.09584686345750      1.02742302140024
