27
Coordinates from ORCA-job 401optt
  C   0.90306628082507     -0.47572257464438      1.87312114103744
  C   0.83180554932009     -0.48222832399714      0.47639768723303
  C   -0.08541356416183      0.13020895694782      2.61726399697200
  C   -1.15747273516065      0.73861784650378      1.97051353011412
  C   -1.24169742560908      0.73655735236103      0.55915288821941
  C   -0.21693131873917      0.10640181847534     -0.20298051402664
  H   1.62692154640350     -0.96088997248503     -0.07870589474127
  C   -0.30452385426635      0.04456461268142     -1.71586903245804
  H   1.74284034961237     -0.94853388126819      2.36579958385369
  H   -0.05702219142221      0.15249069099102      3.69830028877153
  C   -2.20833268875301      1.38718533596893      2.78672713257924
  C   -2.36054682778808      1.37747558983352     -0.05019058265536
  C   -3.30490677222214      2.00819957785939      2.07541847505069
  C   -3.35825246217439      1.99263300397168      0.70324866682841
  H   -4.06998760950725      2.48125138255003      2.67638939338572
  H   -2.44654288106952      1.39390160536179     -1.12689701536399
  H   -4.18604115587793      2.46541226180272      0.19016412129676
  O   -2.15375640317802      1.39825794314550      4.01557261632509
  C   1.03590686707726     -0.20252948392381     -2.40307648484404
  H   1.79655840846519      0.50410917383720     -2.06963916368851
  H   0.91837735043384     -0.09549417134780     -3.48178694494821
  H   1.39999682436599     -1.21428173631372     -2.21618858690723
  C   -1.31154907030950     -1.03185108210620     -2.14122762852561
  H   -0.66597889554626      1.01367941598753     -2.06898203911908
  H   -1.42290451983548     -1.04613147730021     -3.22664935170669
  H   -2.29280197369456     -0.87246822223603     -1.69392152800505
  H   -0.95672082718786     -2.01368564265620     -1.82135475467743
