21
Coordinates from ORCA-job 405optt
  C   1.22301145187886     -0.10736506618887      1.82305855377446
  C   1.21125448519519     -0.29580089856573      0.43561188493894
  C   0.11863511614119      0.39329919083198      2.47034380212988
  C   -1.07903907158203      0.67464831753765      1.74703041125514
  C   -1.07308007681452      0.48002297032350      0.33249555592217
  C   0.08086555094828      0.00638040498819     -0.29503193326650
  H   2.09416335418670     -0.67516445433413     -0.06087004117252
  H   0.07152142561897     -0.13467559883726     -1.36888579981011
  H   2.10468125345093     -0.34252563341016      2.40437393852352
  C   0.26141196301352      0.62194994666052      3.94819144519667
  C   -2.27840931155001      1.06975308767552      2.36011056194462
  C   -2.26582959688259      0.75245237514984     -0.43042466398667
  C   -3.47563466852010      1.34266844646086      1.59999407644985
  C   -3.40338828600846      1.16692665655600      0.15101552155015
  O   -4.51265318075695      1.70544366229201      2.16346577075348
  H   -2.21540379250121      0.60560222915630     -1.50312271939066
  H   -4.30315484930200      1.37396714741113     -0.41271530996077
  H   -2.37103176916443      1.15955100165979      3.43501822144622
  O   0.79625684261209     -0.15744272138978      4.67561472914168
  O   -0.20387390914848      1.79360093102345      4.42471644087258
  H   -0.52204293081492      2.35873800499921      3.70997955368786
