24
Coordinates from ORCA-job 408optt
  C   -1.43024552035202      2.18698726758734     -0.54887746457179
  C   -2.32205367743815      2.65839129971515      0.37522419695972
  C   -1.32939448264758      0.75688784773811     -0.81642201614448
  C   -2.23688762502988     -0.11621771451355     -0.09498672052459
  C   -3.13859548645664      0.38660038622924      0.79266742894591
  C   -3.18998885527800      1.77346347140719      1.03679984490169
  O   -0.49348587784615      0.30611869899476     -1.60861744368275
  H   -3.82229376022373     -0.25215768751484      1.33570626233394
  C   -0.47449302619168      3.15471190866841     -1.19190019629927
  H   -2.14902395724085     -1.17604827380686     -0.29419029825176
  O   0.22704688624184      3.84614411545994     -0.51214963452582
  O   -0.44620288409903      3.25924455827633     -2.51935850424569
  C   -1.35406066304151      2.54658748966186     -3.35550065936047
  H   -1.43082347869579      3.12825286231521     -4.26985181080787
  H   -2.34034910416235      2.46925898209460     -2.89546902680554
  H   -0.96367165266129      1.55410132509993     -3.56794811447181
  C   -4.19229329635318      2.25852932138819      2.02848796836733
  O   -4.95721457018810      1.53238382611075      2.60521535631032
  O   -4.14761962713554      3.57975343848078      2.19880389007707
  C   -5.08152501679707      4.10470434258175      3.14464763795878
  H   -6.09890288369248      3.87359129271034      2.83341908132990
  H   -4.91551159402297      5.17691410913965      3.15938645975227
  H   -4.90126075406625      3.67141146694275      4.12704779088538
  H   -2.35883909262153      3.71522566523290      0.60209597186954
