26
Coordinates from ORCA-job 411optt
  C   2.31224078697669     -1.25362009191494      1.82149067340567
  C   3.17766330018697     -2.34169494142835      1.86670167808947
  C   2.36495301347362     -0.28946500542408      2.81406745558396
  C   4.09709038450141     -2.47576096640541      2.89537970724732
  C   4.16440153477287     -1.50498559727916      3.91463697260419
  C   3.27540803168802     -0.40155916373125      3.85461260372617
  H   1.70211674436648      0.56477302858795      2.79974017427810
  C   3.31114493977384      0.63895434952028      4.90197154477228
  C   5.09143584560525     -1.62910988066448      4.96963281460740
  C   5.15968281798992     -0.66253075192329      6.00201758765297
  C   4.29510542810053      0.45578264163743      5.99193792334734
  O   2.56533687657058      1.60413433208174      4.87128643946493
  C   4.36459471809147      1.39941473454760      7.01389129966343
  C   6.08437012847122     -0.79157632104292      7.06005104281741
  C   5.27612124339070      1.25268640434117      8.04179702610602
  C   6.13939979120778      0.14977261889340      8.06077548555010
  H   3.68685856216565      2.24217358994553      6.97486126318878
  H   5.32463145303967      1.98880645619770      8.83324802547795
  H   6.75003744382650     -1.64596999946956      7.07148372274250
  H   6.85274167332678      0.03874901079634      8.86710297944350
  O   3.19821654169248     -3.34037096453098      0.93431068379429
  O   4.93496543686231     -3.53555819623141      2.93525517725961
  H   5.75872250386997     -2.47987992369745      4.98847488017475
  H   1.60212151489656     -1.17120427194483      1.00659192187584
  H   2.53479896110793     -3.18349209086427      0.25603077750332
  H   4.75827032404473     -4.09775899999676      2.17003013962258
