26
Coordinates from ORCA-job 413optt
  C   2.18309706653778     -1.15228306637236      1.69820212966422
  C   3.02631060833746     -2.25739594135755      1.71194112730485
  C   2.24438435599064     -0.19287563299304      2.70656531259805
  C   3.93931502098579     -2.41897779715354      2.72794505998276
  C   4.02200586061708     -1.46600929947202      3.76067495823961
  C   3.16452287516789     -0.33200783995937      3.76173388055250
  H   1.46443980191562     -1.02451777030507      0.89663961310893
  O   1.42257326484990      0.87293074429716      2.67437117456043
  C   3.26263982868505      0.64986471841788      4.85422010592450
  C   4.96559157887184     -1.64511265931608      4.79750836694093
  C   5.09931045535659     -0.73270149380037      5.86071471520605
  C   4.25899960651500      0.40864288913332      5.89923905798162
  O   2.53675624556537      1.64950548083486      4.90515701028207
  C   4.39063548586370      1.32106412112297      6.96322403594002
  C   6.04842470220877     -0.93943708937142      6.87688126625580
  C   5.34353749689027      1.09261737195395      7.96232753758600
  C   6.15863203759520     -0.02814226119806      7.91059351993455
  O   3.63298186429588      2.40913046453157      7.05802523370063
  H   5.41963175065054      1.81263178951888      8.76558399704011
  H   6.68473308961581     -1.81383258056965      6.83761010691451
  H   6.88989376029392     -0.18765227305049      8.69252756727998
  H   2.95892584546965     -2.98842700106522      0.91698557082057
  H   4.60167452473283     -3.27431098320672      2.74734911989097
  H   5.60706665549767     -2.51719838774317      4.76991777779218
  H   0.85987981934308      0.81803240005431      1.89466446779457
  H   3.02738639814660      2.39864209706929      6.27101728670351
