32
Coordinates from ORCA-job 414optt
  C   2.43189557088740     -1.30756560388241      1.96727428011878
  C   3.31189433056117     -2.40568566724844      1.97174125320366
  C   2.52689522900781     -0.35924145903550      2.98155354978766
  C   4.25069508893734     -2.53853590863408      2.96499913348588
  C   4.36052080857691     -1.58785685119905      4.00158933545878
  C   3.47163930583437     -0.48746974863689      3.98627502046666
  H   1.86574749426518      0.49883101575965      3.00739449871390
  C   3.54624996938482      0.53942789218438      5.04626821530565
  C   5.32021421097706     -1.72002464901294      5.02462724773103
  C   5.43602662899010     -0.77639461545200      6.06859456795903
  C   4.56769128222267      0.34333547106185      6.09883677631172
  O   2.80018534871311      1.50477267754133      5.05298805841711
  C   4.65487128193607      1.28701649024000      7.11749489298430
  C   6.40668562822634     -0.91026802605361      7.10931889549542
  C   5.59676665008090      1.13645325643041      8.11311312026923
  C   6.46827682953159      0.04286966060155      8.10746547441129
  H   3.97125167143241      2.12469769110807      7.10001385094203
  H   5.67042481424638      1.86531455963565      8.90948086512589
  S   7.47718831380029     -2.30441517392523      7.04836985832638
  H   7.19398210612213     -0.04175943505751      8.90263110080287
  H   3.25826110433086     -3.15467657140082      1.19484705189928
  H   4.92343975774202     -3.38776041466205      2.95925827763151
  H   5.97929315891240     -2.57775448891381      4.99411123934889
  S   1.19979397300922     -1.03876535595020      0.75342802666109
  C   1.40052976931442     -2.43873678803786     -0.35469557458074
  H   0.64879865719747     -2.30799551779184     -1.13020446073339
  H   1.21774397547268     -3.38086004218814      0.15931967410016
  H   2.38707066352157     -2.44127643303732     -0.81506148820717
  C   8.51776712952495     -2.07706544765923      8.49303379680323
  H   9.08992766413489     -1.15328728985006      8.42732662681747
  H   9.20440192060571     -2.92100780408645      8.48878199517751
  H   7.93322966249965     -2.09957542284742      9.41105483976477
