32
Coordinates from ORCA-job 417optt
  C   2.32397939313022     -0.82375259798788      1.65639920298964
  C   2.87151744491856     -2.11724367163493      1.76163628775560
  C   2.55551399775318      0.09939247745979      2.64606734599049
  C   3.65888360298308     -2.44037100463317      2.84761139848422
  C   3.93528097687786     -1.49243557108344      3.85799558080747
  C   3.34772359746102     -0.21456072629354      3.75247888826583
  H   2.12592331495516      1.09138090428469      2.59767656931820
  C   3.52061695935701      0.79754572210101      4.80641767351660
  C   4.77846742692098     -1.80666697496098      4.97809905124351
  C   4.93386514780248     -0.87264604536256      6.05603343526010
  C   4.31435226458198      0.39803964778339      5.98693220215120
  O   3.02346136353112      1.90770469497875      4.71774063331095
  C   4.46004341224250      1.31477988971587      7.02414222688370
  C   5.70585827822580     -1.16288988274938      7.20313123073212
  C   5.20665832413135      0.99989141204068      8.14209542603342
  C   5.83077625404271     -0.24761987752093      8.22340611124397
  H   3.97226917487185      2.27492425042580      6.92012064112416
  H   5.31314886754618      1.71520554683796      8.94671198593039
  H   6.20304537054959     -2.11901935481495      7.27437327664335
  H   6.42304927055863     -0.49864885165610      9.09382767290018
  S   2.47399002481443     -3.22926012104740      0.46381278630303
  H   4.05431262079170     -3.43763761745397      2.96346841727773
  S   5.62069703897150     -3.35327242195500      5.04174114446263
  H   1.70978353419601     -0.57106921043848      0.80103373934762
  C   3.36292896088410     -4.71865194186053      0.92933830928459
  H   3.16542520194760     -5.44019615155470      0.13941337970180
  H   2.99953429496755     -5.11716564361809      1.87501631450715
  H   4.43528465373593     -4.53525309305407      0.98333897261718
  C   6.78878284733613     -3.14502458340261      3.66888763501550
  H   7.34475900414059     -4.07824566192559      3.59840963260920
  H   7.47352857617878     -2.32865235682981      3.88557809342121
  H   6.26797879959430     -2.95741118378978      2.73239473486711
