18
Coordinates from ORCA-job 41optt
  C   -2.10468157518994      0.22296204339653      0.12297756204656
  C   -2.07672085223183     -1.10609935545113      0.20608762342605
  C   -0.84837385944509      1.00687445850912     -0.07971548533775
  C   0.44504227754379      0.26988721567930     -0.05195111824186
  C   0.45565974384261     -1.05999029026044      0.04753065146452
  C   -0.79375441996896     -1.85307708305681      0.15083190417659
  C   -3.37673201503959      1.00889149817629      0.31371552783182
  H   -2.97052886937675     -1.70521275040970      0.34380933752519
  O   -0.90556851932416      2.19738517770949     -0.29696464796088
  C   1.78206464359671      0.98478828388977     -0.17368872354559
  H   1.39209714758618     -1.60553009172706      0.04451109629677
  O   -0.77442041178526     -3.05775123997915      0.19295288832989
  O   -3.47775428600875      1.84159702166738      1.15428215306979
  O   -4.40405948446930      0.67180551860689     -0.48299612649263
  H   -4.13408916425899      0.04042923396170     -1.16018120859610
  O   2.80354543929103      0.36977082021118     -0.10278321335604
  O   1.74760491925181      2.29564196460457     -0.35984375927645
  H   0.82477928598652      2.61440757447209     -0.39453446135985
