25
Coordinates from ORCA-job 426optt
  C   3.24501303046756     -0.63352085865138      2.88230850797193
  C   3.97131415558010     -1.82712578383549      2.64450301703794
  C   3.58106736663810      0.18982226077060      3.92169836937171
  C   4.65742712540689     -0.14236934681221      4.77183145063265
  C   5.39273154083306     -1.34122266910022      4.54060553723429
  C   5.01405802194169     -2.16813710001884      3.45138562004670
  O   2.20251274760876     -0.28058043503247      2.08826961640464
  H   3.68728367363098     -2.46412734054943      1.81407187827406
  H   3.01526933496401      1.09729486568205      4.08749429690665
  H   5.56807848889378     -3.08067637600386      3.26833341091472
  C   5.02990671286475      0.68404698197044      5.85567415772412
  C   6.07348304385615      0.35126178540942      6.67527297109505
  C   6.81692772665007     -0.85095520148505      6.44943836150511
  C   6.46097205554290     -1.66945011117103      5.38777115061796
  H   4.48725462450276      1.60072440622106      6.05366582688168
  H   7.01756212959946     -2.58277341510163      5.20736633984554
  C   6.43703737848829      1.24221176901056      7.80852109135975
  C   7.89793612240358     -1.17508287542421      7.31675440627094
  C   7.55335496368649      0.81963099018732      8.63249640153891
  C   8.24260590902818     -0.34573992676102      8.37929623436126
  O   5.82407348074533      2.27959659438653      8.03407903055520
  H   7.81616285837941      1.46850805716466      9.45721273722435
  H   8.45344051153278     -2.08674903667207      7.13652019325387
  H   9.07064427723993     -0.62585969153529      9.01825060373131
  H   2.07084271951487     -0.93783754264848      1.39833878923955
