27
Coordinates from ORCA-job 427optt
  C   1.19313983701487      0.21849353522540      1.69308156684355
  C   1.14934560157971      0.03453132400435      0.30147893861271
  C   0.04960570661213      0.54426644011052      2.37545172834577
  C   -1.18021203760109      0.69812709803592      1.68962558041097
  C   -1.21875383355752      0.51232665550902      0.27949249248484
  C   -0.03762975939550      0.17914342006572     -0.38923207188395
  H   2.05430136819685     -0.22356784674011     -0.23288632546904
  H   -0.06340487560049      0.03551228998838     -1.46267878904861
  H   2.12932633805502      0.10211310952667      2.22226761824639
  H   0.06743241171528      0.68804064776326      3.44891442801206
  C   -2.36616959374591      1.02396791948970      2.35455120280386
  C   -2.46624852478267      0.66972148365450     -0.42356426564695
  C   -3.61796957680621      1.17661104280282      1.65933504338719
  C   -3.62223832779846      0.99332342023695      0.19230770814369
  O   -4.65379517003982      1.44090961744076      2.28180289410848
  H   -2.44529104180958      0.51303121883983     -1.49622251909376
  C   -4.93641005910294      1.20115608449747     -0.51273428367277
  H   -2.38497404699042      1.16512105889642      3.42824107059718
  C   -5.27723408918570      2.69673510014273     -0.54929441780342
  H   -6.25568181459435      2.84829606929032     -1.00765134926688
  H   -4.53520309584154      3.23586590331827     -1.14254317604358
  H   -5.29834676247628      3.11672873665199      0.45481028427199
  C   -4.97386496667927      0.61194478021811     -1.91708575370945
  H   -5.69624367449633      0.71065208194897      0.10165949608610
  H   -5.97769613294311      0.70814819448733     -2.33155443619964
  H   -4.70281290335176     -0.44486725241090     -1.92051942764379
  H   -4.29371097637486      1.14301786700557     -2.58718323687296
