34
Coordinates from ORCA-job 431optt
  C   3.11051007488817     -0.35176327657641      2.96635585208427
  C   3.91860438803800     -1.44546119289761      2.54700938083288
  C   3.45232291523075      0.31811869422667      4.11471658791215
  C   4.58108543938067     -0.05362135087590      4.88010534901597
  C   5.38099312047526     -1.14965148931366      4.45034203677371
  C   5.01293539900544     -1.83030340944496      3.26057556747837
  C   1.92692708833465      0.04220255051760      2.17068365091565
  H   3.66583366081867     -1.96055700518491      1.62896690773979
  H   2.83833497693096      1.13805306973015      4.46859943520530
  H   5.62487455049086     -2.65753759346306      2.92153776423343
  C   4.93460822662437      0.62950946369807      6.06368504864741
  C   6.03050406008028      0.25900687768562      6.79501330851793
  C   6.84199312620555     -0.83981323443652      6.36915222750564
  C   6.50163441810963     -1.51970113673608      5.20890060842263
  H   4.33836638374544      1.46528795719980      6.41074883938072
  H   7.11134037718040     -2.35391234860533      4.87930547453860
  C   6.37997761550685      1.00166428487884      8.03327336453189
  C   7.97735791356522     -1.20799861181984      7.14689088367265
  C   7.55549924932495      0.54594957715378      8.75196135369199
  C   8.30966187417795     -0.51829846906033      8.30851250864718
  O   5.71095073793273      1.95034591622911      8.42677459377032
  H   7.80906959656509      1.08655400763165      9.65403229543073
  H   8.58468509720704     -2.04110485225687      6.81649456913175
  H   9.18053169470451     -0.82725339765584      8.87286501895509
  C   1.58781810755265      1.38661216081065      2.01155391024033
  C   1.12322156449813     -0.92426115089851      1.56401256700477
  C   0.00878487483878     -0.55758954205728      0.82506262147872
  C   0.47517467320383      1.75385404578049      1.27050761388949
  C   -0.31905197850165      0.78304847339472      0.67512651227705
  H   -0.60875220929552     -1.32140175979680      0.37055212188109
  H   -1.18726899088397      1.06960207736958      0.09642148861652
  H   1.35858645218953     -1.97334882407692      1.69385067548544
  H   2.21713444265137      2.14991853686654      2.45190028431982
  H   0.23268107922328      2.80172095198353      1.15030957777061
