28
Coordinates from ORCA-job 432optt
  C   2.59205541217636     -1.37294410488577      1.86266136112116
  C   3.49997473242570     -2.43552433567222      1.96313441789033
  C   2.54077758183329     -0.38821645475526      2.82670136252746
  C   4.36046683760601     -2.50621068915107      3.03907670077016
  C   4.33154717945953     -1.50289272211805      4.05164525900985
  C   3.40192078059843     -0.44474178474045      3.91918932490651
  H   1.84507392310989      0.43688780544152      2.76201711748864
  C   3.33429965352976      0.61802298058242      4.94578675797084
  C   5.20178211630466     -1.56004782483676      5.15475542487968
  C   5.18041306758107     -0.56616490924774      6.16385182039671
  C   4.27260006418470      0.51290437096622      6.08152989093579
  O   2.53846941902035      1.53949573541355      4.85617674551667
  C   4.25652710312607      1.48856991544573      7.07694257463556
  C   6.05789680986426     -0.62853128044263      7.26736257892492
  C   5.12450057325929      1.40884729606428      8.14778181783186
  C   6.02891380964828      0.34226841080152      8.24008056913176
  H   3.54813941320071      2.30106701006731      6.98203378653654
  H   5.10822734393752      2.16886761773020      8.91769350830047
  H   6.75533286756811     -1.45464652234771      7.33494898272526
  H   6.70716877443643      0.28369115053992      9.08145585413087
  H   3.51613005408772     -3.19166344753734      1.19232120213134
  O   5.26766717486215     -3.48941562133836      3.22250161980988
  H   5.90273229703383     -2.37908094308044      5.23385580866541
  H   1.92515283451119     -1.33401528364878      1.01144951385162
  C   5.33196621038198     -4.52064628856487      2.26045951756464
  H   4.38065800137081     -5.05440038906602      2.19483736242020
  H   6.10823172962665     -5.20156048012510      2.59744896757390
  H   5.59566423525511     -4.12336921149406      1.27728015235181
