22
Coordinates from ORCA-job 438optt
  C   1.24675207237124     -0.08401592492450      1.73717354328188
  C   1.19475305371203     -0.06809696641968      0.34191351665899
  C   0.13502498622072      0.28731461572068      2.46598443117771
  C   -1.04522375666297      0.64946203163477      1.82031138585386
  C   -1.13137441918806      0.61034163105024      0.41123347373299
  C   0.03048454582234      0.27530565127884     -0.31098593865435
  H   2.07746492986351     -0.31379372305993     -0.23411578178413
  H   0.02256893901438      0.32596136390547     -1.38934577068705
  H   2.16224398511570     -0.36170431127885      2.24268560503767
  H   0.15071629786873      0.32171726315996      3.54738200052665
  C   -2.18621040164123      1.11748313223157      2.64146833647747
  C   -2.37591071428604      0.96982300688317     -0.22907866120578
  C   -3.34824223707727      1.59357643770909      1.91629640063468
  C   -3.41200131860625      1.51960508142098      0.55616689856346
  H   -4.16726955056255      1.98169115299379      2.50697551430921
  C   -2.67105981385656      0.75851864083253     -1.63514540574611
  H   -4.31165071641212      1.84490698041665      0.04622614135142
  O   -2.14079900512940      1.12538129539399      3.86638779986592
  C   -2.21677744242293     -0.22157563916265     -2.42233358171325
  H   -3.41945578640838      1.43068028449734     -2.04556932069667
  H   -1.53903581360011     -0.98469066215115     -2.06521215565955
  H   -2.56139783413466     -0.30522134213234     -3.44410843132507
