26
Coordinates from ORCA-job 440optt
  C   2.34524833320632     -1.32084449238380      1.80688164589793
  C   3.23819159956702     -2.41672817728253      1.86638199092905
  C   2.39781286539307     -0.35426059603984      2.80582900243591
  C   4.13561616212340     -2.52749874035283      2.88940401414975
  C   4.20311638754445     -1.55480767162378      3.91846068696839
  C   3.30530426343131     -0.45824545595712      3.84797081948766
  H   1.73117738146631      0.49972584060886      2.79034373020486
  C   3.32210371882013      0.59058628143913      4.89053000680062
  C   5.11686478121992     -1.65781292305417      4.97541358721998
  C   5.17608312045415     -0.68485375798963      6.00339673533120
  C   4.30161635110548      0.42626324543311      5.98052529974224
  O   2.55920822075162      1.54518617793723      4.84580282285319
  C   4.36122420141608      1.38092938450248      6.99666198940137
  C   6.09725232951525     -0.79589869504570      7.06702708065854
  C   5.26918227040435      1.25163671422971      8.02721818126982
  C   6.14150230647356      0.15413029163964      8.05869594160328
  H   3.67666485750867      2.21767749640233      6.94753582518908
  H   5.31012663406638      1.99535037333468      8.81197397506539
  H   6.77026051481493     -1.64456844779881      7.08957442208854
  H   6.85300310518513      0.05591393875381      8.86840921442993
  H   3.20374508312432     -3.16734181270642      1.08563588795152
  H   4.81344420398012     -3.37199238252556      2.92421573394480
  H   5.79545786538985     -2.50199799672087      5.01076317414394
  N   1.47710402248395     -1.20181560918714      0.74643861703505
  H   1.26551106157616     -2.03219609841951      0.21952666038592
  H   0.70672835897799     -0.56266688719325      0.84879295481196
