28
Coordinates from ORCA-job 441optt
  C   2.31833911744005     -1.32865830715362      1.78558621241803
  C   3.21695717818858     -2.41832854056219      1.83755214398485
  C   2.37360869614021     -0.36189344818738      2.78546152530444
  C   4.12316473255645     -2.52443808145445      2.85490501114375
  C   4.19273550869321     -1.55247679406587      3.88365791328739
  C   3.28837431109410     -0.46114054987879      3.81977632190134
  H   1.70240294188849      0.48873146299248      2.77584533371654
  C   3.30745725163644      0.58933754473036      4.86559023842194
  C   5.11507617347170     -1.65054713283942      4.93463479423121
  C   5.17690709899560     -0.67466971023063      5.96433996855659
  C   4.29354016307409      0.42850449003972      5.94013470362791
  O   2.53495037950321      1.53737063938795      4.82304778654279
  C   4.36609420973342      1.37969138228264      6.96008691595853
  C   6.10420213364371     -0.78715657737523      7.01486261317639
  C   5.27865133193203      1.25945238662568      7.98065269379251
  C   6.16428401205140      0.16345468095193      8.01979544436681
  H   3.68030221648918      2.21631716263180      6.92259458375436
  H   5.32955082457813      2.00736094385184      8.76287228385851
  H   6.78394065269074     -1.63190439707277      7.03159280095707
  N   7.11151101872361      0.08277667086572      9.02857469861161
  H   3.18133373767773     -3.16856414067469      1.05643053846211
  H   4.80606988794022     -3.36512762140528      2.88397025698711
  H   5.79837423600215     -2.49114653260025      4.96386548048854
  N   1.44029621578756     -1.21135632025458      0.73075567460256
  H   1.22198411753924     -2.04652219000278      0.21382326301807
  H   0.66433890400208     -0.58132966615725      0.84839414162697
  H   7.50133242597018     -0.82981722207855      9.19962866123135
  H   6.89683052255639      0.58410986763363      9.87519799597060
