22
Coordinates from ORCA-job 442optt
  C   1.28434900865205     -0.18840447029918      2.31488638266000
  C   1.28593607113341     -0.38063058777660      0.93541079513530
  C   0.19244026223440      0.36215382284464      2.98271163198682
  C   -0.94673838494444      0.71784779273992      2.23120608687240
  C   -0.95164640547780      0.50581773401022      0.83047438345401
  C   0.17729275354377     -0.04140994975780      0.19699795797051
  H   2.15346276045391     -0.81187338808142      0.45331592946831
  H   0.15567771998887     -0.19581770551394     -0.87475413052672
  H   2.14218233767123     -0.49584391890332      2.89857166322108
  C   0.28030318552003      0.52015603696018      4.44907583368296
  C   -2.14371894943635      1.33502049723752      2.85008331426574
  C   -2.09623632638150      0.84468807297206      0.05202762561696
  C   -3.26850458704900      1.63070087192710      1.98227060349424
  C   -3.23339780269507      1.39157097031167      0.62964498207048
  H   -4.13277219124825      2.06577775219801      2.46610868527393
  H   -2.06049874489417      0.66314960780574     -1.01476938607443
  H   -4.08767375165193      1.63288937059698      0.01047587685991
  O   -2.21263409166240      1.60841120367913      4.04851465654784
  C   1.38144323022361      0.93058531352384      5.06694481336258
  H   -0.60670852257879      0.29450119740688      5.02316495829976
  H   2.26720900293197      1.22942531998829      4.51835622418203
  H   1.41773342566646      1.01040445613002      6.14492111217618
