40
Coordinates from ORCA-job 443optt
  C   -0.70132348023615      0.38235364617688      0.08413081599544
  C   -0.78249349158862     -0.98596644671903      0.07181675105400
  C   0.53741083805315      1.04700590105129      0.09805254798633
  C   1.73456404009341      0.31059124825127      0.10367080450225
  C   1.73613783666997     -1.06048191905829      0.09531482003213
  C   0.45436745665023     -1.78545127212820      0.07657794878830
  H   -1.60113719450605      0.98116471543839      0.05687690290938
  C   -2.09284924848119     -1.65808371729316      0.05370003581041
  C   0.58133999441716      2.52293108703604      0.10523303484726
  H   2.66767659709961      0.85539714339474      0.14060455878326
  C   3.00548711851605     -1.80707044685737      0.10358872463147
  O   0.41760195556186     -3.01705285558472      0.06485010382835
  C   -3.14737989489933     -1.13856084649526      0.81054951156248
  C   -2.32604956989847     -2.79279437925280     -0.72881457472551
  C   -4.39909534548243     -1.73204455691020      0.78678064744735
  C   -3.58279239427696     -3.37630950840256     -0.76052534793737
  C   -4.62166061697004     -2.85248921065824     -0.00243866918888
  H   -1.52125612452908     -3.20862506648526     -1.31639838790293
  H   -3.75056980815619     -4.24782014346446     -1.37985725893058
  C   3.16867184076245     -2.97374243803922      0.85654660012498
  C   4.09373033620148     -1.32851917178625     -0.63261273008142
  C   5.30996192923461     -1.99139419953682     -0.61634793123133
  C   4.39027496185900     -3.62781943014617      0.88019913662620
  C   5.46301541861451     -3.14337506765813      0.14353779346861
  H   4.50366922623879     -4.52387994349556      1.47643816770911
  H   2.33761254965545     -3.35900091006154      1.42806360703433
  H   3.97399366658357     -0.44163813137508     -1.24235134083518
  H   6.13670062355210     -1.61200258919165     -1.20269893947640
  N   -0.58502937357278      3.17537898058763      0.14104919700468
  N   1.78454479488464      3.10513724469389      0.07489271373803
  C   1.81409967905288      4.42909945970449      0.07994862553356
  C   -0.53600736876424      4.49881471474457      0.14484988843494
  C   0.66085492093316      5.19740821458721      0.11429852451855
  H   -1.48825705291616      5.01794391703782      0.17379992647850
  H   2.79554495754070      4.89090340249175      0.05541499383843
  H   -2.97362178637897     -0.27625680275677      1.44219853574796
  H   -5.19949394791815     -1.32308932101415      1.38956875824808
  H   0.69296786044080      6.27686599054187      0.11749039776636
  H   -5.59904023529340     -3.31686255655112     -0.02395831821415
  H   6.41257833125260     -3.66246473481580      0.15913942407304
