28
Coordinates from ORCA-job 444optt
  C   2.35433103727181     -1.33728912319726      1.77333480457345
  C   3.18867088875555     -2.43309718945336      1.88054526017292
  C   2.37612697966043     -0.30832849341417      2.73631415188238
  C   4.07343508911232     -2.55049870353048      2.93808288984370
  C   4.12821603711986     -1.54542099908583      3.91637076060420
  C   3.27425821598309     -0.41178682846247      3.82809079177340
  N   1.54571150861791      0.74825686965657      2.59710926224521
  C   3.32472168968871      0.61510334533043      4.86265677657499
  C   5.03798382483253     -1.67136600487111      4.99271647613185
  C   5.14267225134016     -0.70263986327057      6.00195626540914
  C   4.28512122640920      0.42689791437906      5.97456079844142
  O   2.60598583433542      1.61799959378338      4.84548623619218
  C   4.32082894505198      1.37077753297008      6.99060581392364
  C   6.07706871625789     -0.82364359499153      7.07451341034063
  C   5.20819940634362      1.21388100061564      8.04282923574645
  C   6.08063298299602      0.13040645507730      8.08030982893505
  H   3.64661637405615      2.21367628612626      6.93740850600114
  H   5.23703894959813      1.94438815774531      8.84072182580994
  N   6.93366003413573     -1.90968706462418      7.13584659407616
  H   6.78370448677170      0.02935387247717      8.89879961523472
  H   3.14552020840428     -3.20718138717804      1.12492283770694
  H   4.72708303573943     -3.40875647409483      3.02108151724817
  H   5.63342197726107     -2.57406954757994      5.03079186358838
  H   1.66523311008076     -1.25424813488365      0.94171958280892
  H   0.90198986423760      0.77844467726307      1.82875161153126
  H   1.55749232522772      1.46710299220319      3.30670504769482
  H   7.24543311145965     -2.28722347547207      6.25586284559498
  H   7.68462188925114     -1.82242181351798      7.80173538991376
