32
Coordinates from ORCA-job 446optt
  C   2.04775460986221     -1.69998429021778      2.16695854026977
  C   3.00951276019490     -2.70677980509173      2.12354734762296
  C   2.16278363192447     -0.64049759705606      3.05925111511324
  C   4.07504543752146     -2.67341181601212      2.99208377224504
  C   4.20006799452161     -1.62297676925426      3.92290133387154
  C   3.25269336277777     -0.56864106697121      3.94071063611964
  O   1.14907722884222      0.26581138505268      3.08587914345799
  C   3.44300131614944      0.58069451954933      4.86900468254006
  C   5.25476869650947     -1.62936365840445      4.86121641210271
  C   5.35986620575326     -0.66760727922663      5.89193787459794
  C   4.43864366763536      0.40467048999333      5.95731778113379
  O   2.84597384143529      1.62658113843188      4.70309619425121
  C   4.53025412836308      1.30689459414503      7.04035210350438
  C   6.37560668295471     -0.79621617667376      6.86081271518959
  C   5.53452484165518      1.14930029802832      7.99502326195860
  C   6.45425681617090      0.10633849841947      7.89098951579953
  O   3.61509310249765      2.28449449209405      7.11959050644441
  H   5.60971217283770      1.83558716801705      8.82420349274208
  H   7.07767588830512     -1.61612232694508      6.78332635751769
  H   7.22899534364243      0.01073794575681      8.64070588723673
  H   2.90619473268379     -3.51998462561373      1.41705245531274
  H   4.81994969305349     -3.45916871425786      2.98605354730395
  H   5.98112224790061     -2.43184217759861      4.82475089282917
  C   1.31720328263353      1.36690833504849      2.20300890516390
  H   0.45150045898736      2.00901678092312      2.34411929536822
  H   1.35275048546741      1.01825924876318      1.16642698435825
  H   2.22331388771421      1.91899455007626      2.45041266958718
  H   1.18148763503890     -1.72267459316257      1.51861815228509
  C   3.65192612556277      3.16562619862863      8.21951149275432
  H   2.81674679697977      3.84590530614738      8.08008138496462
  H   4.58443154535792      3.73559632680675      8.24067839402212
  H   3.53140537906588      2.62805362060409      9.16385715233138
