16
Coordinates from ORCA-job 453optt
  C   -2.20300111769321      1.39924031420408      0.08170499729366
  C   -3.38527770033333      0.92148465427259      0.63727803511434
  C   -1.09587429333139      0.47438103978230     -0.20003255864144
  C   -1.31048951595995     -0.92006394895740      0.12694414998446
  C   -2.48190064086228     -1.34527972876441      0.66959817661019
  C   -3.52439245735419     -0.42471609788688      0.92720778449099
  O   -0.04016789350149      0.88508612950253     -0.69229329885285
  H   -4.20647381925579      1.59132373548408      0.84901082787431
  H   -4.45114487590580     -0.77827614175509      1.35954386734070
  H   -2.62748672764924     -2.39054228509988      0.90915124650048
  S   -1.86287380624297      3.03184113014308     -0.33904882084921
  H   -0.49076569567996     -1.59395737098984     -0.08435659965224
  C   -3.38731689332074      3.86506789239358      0.12274982433079
  H   -3.23771512004407      4.91432926186892     -0.12166330388311
  H   -3.57849828243356      3.77180344979975      1.19052106103003
  H   -4.23228116043197      3.48347796600257     -0.44808538869109
