32
Coordinates from ORCA-job 457optt
  C   3.17921975964580     -0.45698110113035      3.02006778427974
  C   3.97064373028778     -1.56755474399678      2.65022562314833
  C   3.50149261240293      0.32022647140774      4.10787680064812
  C   4.63009878940726     -0.05218139910418      4.91326072767790
  C   5.44328533590599     -1.14836165717275      4.50624585617044
  C   5.08944669957005     -1.89619352073783      3.35286429524292
  H   2.31922059832170     -0.20936504009983      2.41431394931378
  H   3.68591001042267     -2.14507978367122      1.78007847356921
  N   2.74771629793553      1.44542427120009      4.48748140938691
  H   5.70984363953887     -2.73306718668189      3.05821692000145
  C   4.93104960190721      0.59886822497097      6.12703949862221
  C   6.02088472132013      0.24400752076045      6.87873239838529
  C   6.87737597962821     -0.81370606456941      6.44680589262059
  C   6.56423866896146     -1.49231709548234      5.28009585077210
  H   4.28426508383757      1.38164671418592      6.50004455355397
  H   7.18861345727837     -2.31862637852123      4.95827560221143
  C   6.30780141001242      0.95593064746539      8.14877171072274
  C   8.01144902426416     -1.16212725228319      7.23775417166770
  C   7.48568852403024      0.52560216400976      8.88071111423477
  C   8.29304001498059     -0.49355746753322      8.42392449529240
  O   5.59389263180930      1.86478162635499      8.55845291233146
  H   7.69687615473349      1.04850794252916      9.80392532097494
  H   8.65364867359029     -1.96538453170536      6.89945559109206
  H   9.16318532894194     -0.78419796307750      8.99905900846538
  C   1.40378919587714      1.52961795482092      3.95550250755767
  H   1.38340412644117      1.77124964275115      2.88225275375004
  H   0.87159443998257      2.31977703143028      4.48518820745428
  H   0.87906575736085      0.58877311724658      4.11496149139603
  C   3.43848148405961      2.72571215218660      4.35769497541402
  H   3.44698364895357      3.06218016194172      3.31128784564204
  H   4.46676544973821      2.64985179606410      4.69894106768936
  H   2.92624914885273      3.47600374644127      4.96066119071051
