30
Coordinates from ORCA-job 460optt
  C   2.03885593401120     -0.59748160320296      1.77793407958097
  C   2.89000355817833     -1.70207211875052      1.61099401400546
  C   2.16710254180958      0.25805944494302      2.85087212008228
  C   3.88826253038334     -1.94441520253710      2.54549457179714
  C   4.03315040929514     -1.06780616528697      3.65841114549148
  C   3.15779983960826      0.03661041363714      3.79874211847166
  H   1.26498488479416     -0.42048120065581      1.04093201522089
  H   1.51115636876869      1.10866717447782      2.97984093502914
  C   2.68954963362143     -2.59411205583460      0.41341147354078
  C   4.82260165500826     -3.11561935171886      2.40730273776502
  C   3.27393511921539      0.96867650955473      4.94032945990496
  C   5.03707028551708     -1.27453230130633      4.63319610789354
  C   5.20161752199930     -0.41191660227608      5.74449784631225
  C   4.34849059540890      0.69945446223093      5.91762138920489
  O   2.51766366888627      1.91778581589240      5.07013876431155
  H   5.71315662152964     -2.11360105259888      4.54284503360230
  C   4.51689098810064      1.54687529182705      7.01007426041225
  C   6.21589100012416     -0.63911668889492      6.69931374620927
  C   5.51732267067364      1.30746317044716      7.93215421094220
  C   6.36928099254568      0.20678982131701      7.77225285172655
  H   3.84467505937769      2.38910106462276      7.10962517665247
  H   5.64518149430333      1.96882002566554      8.77885084124182
  H   6.87357663757423     -1.49072624286121      6.57292849924638
  H   7.15163346273475      0.02271289590454      8.49711603376031
  H   1.86061354757647     -2.23517071791792     -0.19357924867323
  H   2.46755576473146     -3.62019069787156      0.71156034743203
  H   3.57954935589881     -2.62221306318333     -0.21762660890420
  H   4.60886752909250     -3.70310235244087      1.51970540581792
  H   4.74793513288239     -3.78024625617842      3.27083683374483
  H   5.86096519634923     -2.78320241700375      2.34281383817704
