32
Coordinates from ORCA-job 461optt
  C   2.43837388934093     -1.47797427298361      1.54075729623658
  C   3.06097149980345     -2.69615891413959      1.76565489853639
  C   2.60380387835412     -0.41184512727033      2.42638988565849
  C   3.80683523814053     -2.89584523550865      2.90550221861576
  C   3.99175274630092     -1.85585578778555      3.83657224256417
  C   3.43707250866002     -0.56957764053714      3.55076360598064
  C   3.88134582621463      0.58084512569723      4.36571636419868
  C   4.73710827218593     -2.08098315946805      5.04291389901354
  C   4.89415171928207     -1.03413968030410      6.00888771589744
  C   4.51918677032776      0.27991500303254      5.66603654717279
  O   3.76033309916829      1.73601444395814      3.99773878980432
  C   4.71629210489846      1.32916671976345      6.56128690649642
  C   5.41506982945752     -1.25568550988256      7.30218445821288
  C   5.25066968599301      1.09330589358462      7.81201692605477
  C   5.58665169246599     -0.21224147956015      8.18267318208971
  H   4.42796878896118      2.32363684227526      6.24791885280268
  H   5.39370082994123      1.90968767108086      8.50732315945533
  H   5.65244247941916     -2.26537500980099      7.60790790811941
  H   5.97767896219250     -0.40792946183794      9.17280212218455
  H   2.92775860619128     -3.50538357321219      1.05951849871283
  H   4.25738031551295     -3.85812486384914      3.09405214807600
  S   5.42270225798807     -3.66882553912476      5.36422043074317
  S   1.69318491490124      1.02174025479159      1.95903109556911
  H   1.79046077782948     -1.34593615383109      0.68396698742165
  C   1.03271795328669      1.69358558229361      3.49522984111051
  H   0.03945700056445      2.06792874926219      3.25483821808267
  H   1.66298875517018      2.48856912738570      3.87979098725960
  H   0.94447325407733      0.89911091197452      4.23456742723300
  C   7.19228755653372     -3.27693519378464      5.42811806661970
  H   7.69799492584179     -4.21229594311846      5.66124868509964
  H   7.41220971507261     -2.54263093832540      6.19885940772930
  H   7.52577414592204     -2.91489284077527      4.45860122724784
