32
Coordinates from ORCA-job 467optt
  C   2.08071276557235     -0.90963949709191      1.63669671030207
  C   2.94306771746146     -2.01690700200411      1.62915021985646
  C   2.20778431459671      0.01479962295459      2.67058360743163
  C   3.91444502918333     -2.21304969124024      2.59086362194844
  C   4.04636631268690     -1.25990201283670      3.64354757298085
  C   3.16236606228665     -0.14668301719210      3.65791066370978
  C   1.07793994105778     -0.78552064247212      0.57457081859618
  H   1.56212376947115      0.88036471013532      2.73865601056550
  H   2.82392314274157     -2.76327135363075      0.85216181831337
  C   4.77923451637330     -3.40368730159275      2.53004774208357
  C   3.24702606199406      0.87540443863824      4.72895843998863
  C   5.03251596634196     -1.37375851961258      4.64032826474925
  C   5.15581497729797     -0.42955174865788      5.69161716715918
  C   4.28684616583970      0.68055712030402      5.75898820662419
  O   2.49405474658301      1.83431956525990      4.75560833205522
  H   5.73679670331894     -2.19394779160505      4.61187969493763
  C   4.41007612287632      1.60392258002615      6.79440057341597
  C   6.14291590482887     -0.57429298966677      6.68843168368777
  C   5.38152714095194      1.44162890759226      7.76306004479823
  C   6.25103668120866      0.34520711412857      7.70565088479204
  H   3.72706668332708      2.44301779309675      6.81265267098580
  H   5.47335379174061      2.16066587724478      8.56617755596716
  H   6.81488147482743     -1.42276119604402      6.64198653453313
  H   7.01195494311504      0.22185437547497      8.46529724417826
  C   0.21886916090726      0.21680678271505      0.41296669009807
  H   1.06027363571926     -1.60460942711158     -0.13797007206228
  H   0.18515536897423      1.06696357858706      1.08216278702502
  H   -0.48401286463164      0.21427244107290     -0.40861993307232
  C   5.25680485914431     -3.92549217375656      1.40614527053832
  H   5.02700686433786     -3.87843527761669      3.47359317653896
  H   5.06496925624013     -3.46785335814138      0.44286267779177
  H   5.86680278362575     -4.81856190695733      1.41766331948207
