21
Coordinates from ORCA-job 477optt
  C   -1.41508956655838      1.24116268387319      0.90191654343058
  C   -1.90355493940551      0.18902238386712      0.17633424471741
  C   -0.04266031659751      1.68767895657209      0.77846088756747
  C   0.80504533182500      0.96985011013979     -0.14989676779631
  C   0.30582506811573     -0.08112712968895     -0.87037039484893
  C   -1.03070560519999     -0.47276040705741     -0.71640060054111
  C   -3.34027947736500     -0.26612228714355      0.31014626097287
  H   -1.40374191565143     -1.30647245629100     -1.29903421271740
  H   -2.03914883564462      1.78580222779746      1.60066836871099
  O   0.38816370342249      2.64672948524721      1.44025461971767
  H   1.83068355716302      1.30186542120931     -0.24162872480007
  H   0.93838271888694     -0.61806425069290     -1.56544341764555
  C   -4.09646797931181     -0.10576333961343     -1.00956859035047
  H   -4.05646580340391      0.92430006955995     -1.36446520377085
  H   -5.14268910023632     -0.38818838402099     -0.88484475724272
  H   -3.66930640835333     -0.74696560270252     -1.78358720655569
  C   -3.42209019116186     -1.70806019323541      0.81350531766929
  H   -3.81169398257068      0.38134259325400      1.05345463933108
  H   -4.46266133761504     -2.00080172581155      0.95962852483226
  H   -2.89356391164699     -1.82643318053994      1.75963011999852
  H   -2.98159100869072     -2.39868497472247      0.09124034932098
