27
Coordinates from ORCA-job 480optt
  C   2.06217430628885     -0.64713772326263      1.64914511391808
  C   2.94859835427323     -1.72504613032083      1.52472755458237
  C   2.15829284963248      0.20611678528097      2.73105778661323
  C   3.91702146029858     -1.93989563707613      2.47647900190074
  C   4.03346407119909     -1.07983075263719      3.58940841980779
  C   3.13464661352204      0.00306445466482      3.70378408965558
  H   1.30246359644032     -0.48539520650929      0.89598326802136
  H   1.48629145521366      1.04578296615324      2.85147068787907
  H   2.86954875491288     -2.39110986515237      0.67536519032159
  H   4.60364254453563     -2.77268635199226      2.38352170451376
  C   3.22322796065140      0.92613542392298      4.85382208900726
  C   5.02709453925264     -1.28956912907347      4.57632518049636
  C   5.16670637735573     -0.43912534902957      5.69568971668327
  C   4.28769843127572      0.66192456978700      5.84747115507240
  O   2.45295450534619      1.86437385871736      4.97800754513912
  H   5.69574867734370     -2.13134478025334      4.45473607413827
  C   4.41070906245136      1.51680197876979      6.93869613914898
  C   6.17393282773698     -0.66261643446087      6.67679983417233
  C   5.39250616886388      1.29311254852537      7.88172700519955
  C   6.26369757734502      0.20629302300294      7.74312253866612
  H   3.72179665265967      2.34694491784174      7.01896679110038
  H   5.49330260526141      1.95542738934376      8.73147053658083
  C   7.12240766061273     -1.82087226830372      6.55451580648730
  H   7.02944327853866      0.04156699006615      8.49179281114128
  H   6.58716411943826     -2.77265298729002      6.54173217705973
  H   7.81682198314012     -1.83598899571215      7.39221080990641
  H   7.70553356640925     -1.76142329500221      5.63310097278635
