18
Coordinates from ORCA-job 481optt
  C   -1.37769929795916      2.11541132003942     -0.53055486414772
  C   -2.58104445611011      2.43797207488983      0.02889602255697
  C   -0.90104276728372      0.73314399615373     -0.50455124128489
  C   -1.80406453596472     -0.25400505448991      0.06676095548758
  C   -3.00547734906446      0.10373108836732      0.60680278231945
  C   -3.40158412782333      1.45327508376209      0.61070892416369
  O   0.21557623726827      0.39480084452439     -0.90145282216716
  H   -3.65968770660286     -0.66352353763349      1.00484356092519
  C   -4.71039609203635      1.90894032893644      1.17852289201833
  C   -0.58557378196675      3.22911852610237     -1.13757242072709
  H   -1.46022920271053     -1.27964634035198      0.05385381105693
  O   -0.65194976747068      4.36131850294706     -0.74540468388122
  O   0.15580913067067      2.84862533745889     -2.17780807653714
  H   0.61449496159782      3.63601684093460     -2.50701797322587
  O   -5.24606960141502      2.91232648147171      0.81685745275633
  O   -5.27292506662073      1.12934015976599      2.11963312338684
  H   -4.67348143440062      0.43422234608515      2.41251358384519
  H   -2.92178514210759      3.46557200103632      0.02681897345461
