21
Coordinates from ORCA-job 488optt
  C   1.27723491324600     -0.11507813038099      2.03167107983553
  C   1.17812741714240     -0.37976759144957      0.66264996129732
  C   0.21219305250998      0.45190889162868      2.70177088279627
  C   -0.96387046751710      0.76303711549567      2.02161941376228
  C   -1.07702881908737      0.50103348344769      0.63990074459323
  C   0.02222303667338     -0.07780378560839     -0.02289311467541
  H   2.01360992395868     -0.82427556495264      0.13761687211277
  H   -0.03972401308809     -0.28840489223964     -1.08211881085370
  H   2.18865102977173     -0.35521993076780      2.56323127663369
  H   0.25836470895590      0.66887490795577      3.76088076112243
  C   -2.08895825805065      1.36954314472577      2.76451579437995
  C   -2.29496419752345      0.82464914248310     -0.05439657607307
  C   -3.27786809873652      1.66804470115459      1.99898203609334
  C   -3.35276231159373      1.39822072661390      0.65272170150863
  H   -4.10487324941570      2.11238947764983      2.53668505374752
  C   -2.42954708157870      0.55015083096650     -1.51797280688150
  H   -4.26243622938969      1.63601666091649      0.11366150286013
  O   -2.01745220191665      1.60644448473403      3.96952724255530
  H   -1.66938538819472      1.08717606848767     -2.09062354485661
  H   -3.40894290184929      0.85414148615309     -1.88117963746631
  H   -2.29915086431629     -0.51354122701381     -1.73195983249182
