14
Coordinates from ORCA-job 489optt
  C   -1.62277667651108      1.36544911673170     -0.00000300060667
  C   -1.85320923979262     -0.00456619794184     -0.00000169147653
  C   -0.25359945250449      1.90227898098689     -0.00001315738827
  C   0.81049886243471      0.92408261800264     -0.00000274377565
  C   0.54456728466831     -0.40795633579167     -0.00000115637928
  C   -0.79509320300704     -0.88673975511010     -0.00000314430509
  H   -2.87065145684344     -0.37878149634877      0.00000179048296
  H   -0.95606653908063     -1.95583989394691     -0.00000075836724
  O   -2.59638340807232      2.27569460715058      0.00000125866810
  O   -0.05379312494041      3.11641745217825      0.00000641019969
  H   1.82313488313758      1.30873427920013      0.00000155442206
  O   1.49687273032169     -1.37508406284442      0.00000322827123
  H   -3.45996464679232      1.84696193755057      0.00000646214179
  H   2.37199398698209     -0.97335124981706      0.00000494811291
