19
Coordinates from ORCA-job 493optt
  C   1.31333164749491     -0.06392214861496      1.85330920592676
  C   1.25163466317524     -0.33999041616198      0.48697709999425
  C   0.22441680602135      0.46212727057184      2.50434820114735
  C   -0.96708897575662      0.72672009595326      1.79113369592399
  C   -1.03959870911172      0.44861848715160      0.39374991151503
  C   0.09328672954708     -0.08810422356013     -0.23451024931404
  H   2.10006578761620     -0.75469007944183     -0.04038452702763
  O   0.13603658826291     -0.39101501334648     -1.55518313490518
  H   2.22706255318368     -0.26852732051347      2.39485686709179
  H   0.25930384824389      0.68039780442849      3.56362490245529
  C   -2.08844624770345      1.26160661548721      2.43938128896317
  C   -2.26859790153381      0.72890954206609     -0.30575578190051
  C   -3.31918382772706      1.54137726935901      1.74673828416859
  C   -3.34573047803200      1.24108421792239      0.31618715491399
  O   -4.29992027689909      2.01012703696058      2.33547665794878
  H   -2.34527443482266      0.52559273034441     -1.36843591129446
  H   -4.26746666031788      1.45037023640377     -0.20999047496622
  H   -2.05827976396914      1.48122272227322      3.49928370926404
  H   -0.69824134767182     -0.18686482728300     -1.98591689990500
