28
Coordinates from ORCA-job 494optt
  C   1.99627361683886     -0.68030700710568      1.64139277703845
  C   2.88158902792931     -1.77114369497167      1.53170825422241
  C   2.13769104538979      0.17396115135906      2.73184814124027
  C   3.86055586961912     -1.99488603640473      2.46584594284138
  C   4.01075091655278     -1.13031800119866      3.57233825045507
  C   3.11960183820882     -0.03339417731908      3.68699756344908
  C   0.97268278703719     -0.49192492135437      0.60892807085975
  H   1.48605152186766      1.02732945693170      2.86749032411605
  H   2.78031147020367     -2.44311626410439      0.68765821763867
  H   4.53229471895266     -2.83861328573624      2.36415614655483
  C   3.22743956706045      0.90532679969558      4.82751140726879
  C   5.01142832504688     -1.33535549422638      4.54099948623800
  C   5.16715305117283     -0.46557346617518      5.64780512287565
  C   4.30318021348896      0.64206046255193      5.80765241032418
  O   2.46597733797085      1.84984868364903      4.95137696350667
  H   5.68314322728482     -2.17913760538174      4.43676720570465
  C   4.46163386164972      1.49782106222137      6.89530906249209
  C   6.17825414601556     -0.67762163134307      6.60875210273899
  C   5.45952315574756      1.27281172489068      7.82369054949322
  C   6.32034526110646      0.17764670316959      7.67590604563446
  H   3.78338228562763      2.33611960513227      6.98647560943836
  H   5.57830326402382      1.94159691892989      8.66580794177724
  H   6.84283448646999     -1.52507214725302      6.49159877551964
  H   7.10093601041140      0.00488610737440      8.40541364026113
  C   0.05953874621567      0.47408543536392      0.56659615315668
  H   0.98454007028515     -1.22921134673560     -0.18815482974390
  H   -0.01198351952509      1.24150841124752      1.32659763471817
  H   -0.65386230265262      0.52322255679289     -0.24442896982005
