24
Coordinates from ORCA-job 497optt
  C   2.13618402622861     -1.06261695438815      1.72201444937316
  C   2.98466022819244     -2.17570818880997      1.72620257868374
  C   2.23160282797345     -0.14112233747362      2.74402672609808
  C   3.90814897141410     -2.37103989661471      2.72374199616390
  C   4.01158859245581     -1.43366813043985      3.77188666559291
  C   3.15821009308744     -0.31006392601330      3.77010843530475
  H   1.42025000689490     -0.94077739108523      0.92136214496548
  H   1.59082343758099      0.73040087453726      2.77067904215633
  C   3.23900365026621      0.69141873667373      4.85013902881907
  C   4.95664939806008     -1.61605191950654      4.81120941427294
  C   5.07705765224998     -0.69221257952596      5.87187131487102
  C   4.24129894552406      0.45245710940781      5.91553935752592
  O   2.51579472000375      1.67208950482244      4.86915419228856
  C   4.34293932152948      1.37149912210275      6.95282051186980
  C   6.01120721067977     -0.84969947602363      6.92520087748648
  C   5.26580985172394      1.18156920823151      7.96322922064434
  C   6.10410350608538      0.06436778537291      7.94801596444705
  H   3.68275961473138      2.22813916550576      6.94116160866954
  H   5.34658865610514      1.89484729810321      8.77226657630882
  Cl  7.07067184642992     -2.21831974235567      6.94645274478331
  H   6.82975991648098     -0.09267594308406      8.73407497662220
  Cl  2.85940895137566     -3.32655635436846      0.44063635381083
  H   4.55378178723691     -3.23910991880617      2.70703192759969
  H   5.59780678768955     -2.48564604626206      4.78752389164198
