36
Coordinates from ORCA-job 4optt
  C   1.21369375412403      2.35647304949161      0.75666270629576
  C   2.29731886602423      1.54670494301497      0.52746666142135
  C   -0.19419035263406      1.84250556130396      0.60467336177029
  C   -0.33497718055665      0.47081165300461      0.17462582571817
  C   0.81982421023738     -0.30323398973515     -0.05547121770079
  C   2.10815604941815      0.22457488364247      0.12183163252765
  C   -1.63672130112219     -0.12772030220098     -0.00861879826127
  C   -1.65638910154227     -1.56452370048384     -0.46096515467973
  C   -0.49430917426560     -2.26635986791696     -0.65878399905804
  C   0.73954982438569     -1.64469025850250     -0.46052397719073
  C   1.34372736940051      3.79515238037790      1.13478784943412
  H   3.30292573646760      1.92471924830514      0.65696612914748
  O   -1.11356084237837      2.61053194903147      0.85344977412557
  H   2.96286286460807     -0.41565866934064     -0.06316419553625
  O   -2.71094308009554      0.42913244721702      0.17325968953669
  C   -3.00782483035723     -2.14798437731049     -0.70997786978658
  H   -0.52434241233084     -3.30257152638537     -0.96918773179064
  H   1.65887119211585     -2.19664441091647     -0.61811559119748
  C   1.03584883498983      4.65748899526007     -0.10471025188060
  H   1.78113105249208      4.47967937220150     -0.88287516482125
  H   1.07400595638757      5.71193411113211      0.17113159145267
  H   0.04553069784790      4.43300332291410     -0.49477233050328
  C   2.69519336787307      4.17157238158188      1.72863743336223
  H   0.54653096598510      3.98982774203389      1.85648048166699
  H   2.66263739577187      5.20131335985942      2.08468112777118
  H   3.49105515752210      4.11185027373881      0.98289507480330
  H   2.96224583837441      3.53006770270782      2.56972228858406
  C   -3.53828502796650     -1.59730378976763     -2.04797633747758
  H   -4.54858656755452     -1.97154647413896     -2.21706647518363
  H   -2.90549493071685     -1.93401060380345     -2.87190627416481
  H   -3.56510762721696     -0.50988764438369     -2.03393205224724
  C   -3.05006026866889     -3.67066868971154     -0.70025113121153
  H   -3.65708397702128     -1.74706828654291      0.07230088295941
  H   -4.08481870988634     -4.00667918456299     -0.76797432611186
  H   -2.61837164865877     -4.08317846471445      0.21285533425172
  H   -2.51633210105253     -4.09205313640074     -1.55505496602537
