24
Coordinates from ORCA-job 501optt
  C   2.16759549811523     -1.10802737736857      1.74662066057028
  C   3.00359166302570     -2.22618842440938      1.70505513969826
  C   2.24155904035253     -0.16554836861101      2.74188708733968
  C   3.93160339135185     -2.40171220993721      2.70014794306407
  C   4.03367438793188     -1.46089855871354      3.74777218121791
  C   3.18020472853015     -0.33405374840290      3.75615021959037
  F   1.26220659967561     -0.96376968844140      0.77394454204410
  H   1.58760242349473      0.69584124741012      2.75295720158129
  C   3.26126246482516      0.67555461181088      4.83337436893170
  C   4.95999493634464     -1.61028044100530      4.79803939669294
  C   5.09291162757883     -0.70339512459949      5.86916129516223
  C   4.25466493661170      0.43481144324103      5.89720361339509
  O   2.53644158467272      1.65724396928338      4.83780888980088
  C   4.36646507769531      1.34329922833891      6.94835693046555
  C   6.02917172659372     -0.90230909278035      6.90521808828857
  C   5.28519927814938      1.13646085524430      7.95685461544483
  C   6.11709035642855      0.00834759735619      7.93057703989682
  H   3.71247622618023      2.20522951135296      6.94474087035607
  H   5.36512646256122      1.84469705799513      8.77061467895795
  H   6.66851256491531     -1.77380022564999      6.88077538308204
  H   6.83505613362670     -0.14744918676203      8.72509225472982
  H   2.90098452480247     -2.93148458328347      0.89176272329782
  H   4.58829457600735     -3.26025784117896      2.69194221779350
  F   5.75443979052896     -2.68076065088930      4.78027265859815
