22
Coordinates from ORCA-job 505optt
  C   1.36518589848801     -0.01717276520822      1.92654630211790
  C   1.33950058127337     -0.33398719102158      0.54728112557309
  C   0.25757986255208      0.49440253355135      2.52807365694013
  C   -0.94100222935316      0.72167084052283      1.79430896204362
  C   -0.95415010076369      0.39888562968427      0.40655610735516
  C   0.19144901092592     -0.12673034823492     -0.19879187227559
  O   2.48751570572978     -0.83318135441588      0.05546651949179
  H   0.15971204760345     -0.36488540706248     -1.25275964003683
  H   2.28207871701028     -0.19418587983220      2.47208263732219
  H   0.27351948762465      0.73807241586756      3.58323595388991
  C   -2.08513292052095      1.24535722378658      2.39095231208814
  C   -2.15913737773149      0.62277770358798     -0.34779793785074
  C   -3.29580070383576      1.47382940780642      1.64690184031006
  C   -3.26714327669199      1.12762092126109      0.22590454573448
  O   -4.31092300246262      1.93912623826906      2.18199685509301
  H   -2.15043733987999      0.37051309791701     -1.40217226494795
  H   -4.17773775779766      1.29856490881696     -0.33330522761182
  H   -2.09762913271628      1.49819544162432      3.44414660083333
  C   2.53780829089334     -1.16719061600949     -1.31717066667563
  H   1.80668055266249     -1.94280154885767     -1.55699494098589
  H   3.54018644881919     -1.54271246592297     -1.49994466871778
  H   2.35674723817106     -0.28766878613003     -1.93943619969057
