24
Coordinates from ORCA-job 510optt
  C   3.22876103143943     -0.59495009773878      2.89297947398075
  C   3.95847702717452     -1.78496702717471      2.66536004039500
  C   3.57430320688798      0.21407284508179      3.93462978433846
  C   4.65251828724464     -0.11842816556040      4.79134285124845
  C   5.37778673778412     -1.31900112374569      4.54964710430840
  C   5.00224532451683     -2.14772326890901      3.46093580234390
  H   2.40704652913036     -0.34632855992879      2.23599153654359
  Cl  3.49402712886600     -2.78857291454954      1.33394589294304
  H   3.02344113338817      1.12787734567045      4.11965511843137
  H   5.54636319223963     -3.06284013576334      3.26740962198306
  C   5.02510955883939      0.70416855681760      5.87349437222796
  C   6.07054009347999      0.36725086578040      6.69090655921850
  C   6.80693073726466     -0.83564823191761      6.45588522170054
  C   6.44888864316246     -1.65269455927885      5.39540725046607
  H   4.48420373573767      1.62158733379772      6.07399170238012
  H   7.00329288153180     -2.56631764707865      5.21240717763731
  C   6.44005350877925      1.25263106884301      7.82453738484588
  C   7.89401347797625     -1.16539510716980      7.31933626707961
  C   7.56131067840532      0.82627980776856      8.64171663232415
  C   8.24672250888798     -0.34046350800190      8.38101118747074
  O   5.82968515353214      2.28904873133963      8.05800502590094
  H   7.83008010455553      1.47246813540884      9.46654506196856
  H   8.44582195181155     -2.07791599304022      7.13305643382926
  H   9.07790736736422     -0.62419835065072      9.01412249643427
