13
Coordinates from ORCA-job 511optt
  C   -1.58333263221551      1.39206600567987     -0.00000060592939
  C   -1.82923154279284      0.05126458713454     -0.00000034399760
  C   -0.22459718082935      1.88868689423887     -0.00000467319067
  C   0.84608613086035      0.90849869787408      0.00000006467286
  C   0.56274353841103     -0.43295303148108     -0.00000002387296
  C   -0.76050252457318     -0.87611864348634     -0.00000113916766
  O   -3.07294076167592     -0.49152521603110      0.00000051996093
  H   -1.00032310567672     -1.93080304995757     -0.00000069916966
  H   -2.38102587592712      2.12534053875368      0.00000065215148
  O   0.02175311555016      3.10365859715623      0.00000162706202
  H   1.85856427429524      1.28843700343304      0.00000171037394
  H   1.36203794544075     -1.16206981597066      0.00000128874338
  H   -3.73688138086687      0.20584743265643      0.00000162236333
