21
Coordinates from ORCA-job 515optt
  C   1.32023408379818     -0.05655979747747      1.89746331324110
  C   1.23805241974064     -0.32646875304712      0.52530004420360
  C   0.23501756984167      0.46836125122865      2.55196410454406
  C   -0.96859065537862      0.74148827459349      1.85938748736995
  C   -1.04898610037168      0.46628468652489      0.46292717996927
  C   0.07384968997351     -0.06819973353880     -0.17453930037617
  H   2.09296449967781     -0.74110064176538      0.00734667367107
  H   0.03553589035244     -0.28522296470735     -1.23332352831952
  H   2.23580320808563     -0.26232627275677      2.43558285769274
  H   0.28065503605122      0.68307846015361      3.61264103175008
  C   -2.07911046667389      1.27637702946908      2.52614586826476
  C   -2.28424819701523      0.74482821004229     -0.25592352668941
  C   -3.30897732071280      1.55607375745980      1.83352521543314
  C   -3.34160635441281      1.25838693470471      0.40363510753496
  O   -4.28851938165599      2.02449299378982      2.42525346104778
  C   -2.35819437271302      0.45249446975885     -1.72650252154295
  H   -4.27264225162156      1.47482255074933     -0.10595462792367
  H   -2.04254974780334      1.49366871104046      3.58629524134356
  H   -3.33933123777072      0.71317380802204     -2.11698470009381
  H   -2.17920503801960     -0.60607212487753     -1.92593672127854
  H   -1.60662127337183      1.02075915063336     -2.27838265984204
