22
Coordinates from ORCA-job 518optt
  C   1.33902257279966     -0.03859471957703      2.05930521530713
  C   1.31542653531222     -0.31989553402073      0.68062505378734
  C   0.22958591807807      0.48048779901742      2.67914171697404
  C   -0.93702189762295      0.73689015571375      1.95270351653018
  C   -0.96677987481838      0.45767527039272      0.57530219683421
  C   0.17508144409674     -0.07527085918319     -0.05748384751870
  O   2.46135876505485     -0.82768187973829      0.17378875640314
  H   0.13359852792165     -0.28349793034021     -1.11736361730710
  H   2.25035073270194     -0.24324947959979      2.60519156061483
  H   0.23253611671458      0.70192669377582      3.73834859158077
  C   -2.12417386266449      1.29311617193124      2.62406272196833
  C   -2.15836450897665      0.71861794410265     -0.16310921803018
  C   -3.29368953230453      1.52871084758115      1.79781083706207
  C   -3.29055512222850      1.24394398331759      0.45160950239717
  H   -4.16297640796159      1.93780348202445      2.29510347798624
  H   -2.17092971787922      0.49956564202253     -1.22354138411139
  H   -4.17699617842708      1.42892857419695     -0.14150421722855
  O   -2.13098893934682      1.54830639598301      3.82789363949983
  C   2.49801496249104     -1.12332804664847     -1.20516863750749
  H   3.49192977438514     -1.51267406321167     -1.40619309698211
  H   2.33048278016178     -0.22431569667143     -1.80418689465617
  H   1.75138791251253     -1.87833475106849     -1.46526587360363
