28
Coordinates from ORCA-job 519optt
  C   2.36246408449597     -1.37244238404760      1.80804047119276
  C   3.27855229104010     -2.42167423690548      1.86450072134191
  C   2.38179180303734     -0.35482358328932      2.79447956446895
  C   4.18230420901138     -2.51156771821870      2.89488671872667
  C   4.19895254292246     -1.54595838874278      3.92295336732770
  C   3.28404348899277     -0.44882356781332      3.86710155107699
  N   1.46665708327236      0.65816386945515      2.66969248238067
  C   3.32512989424177      0.58088163504148      4.90867358290696
  C   5.11602787391819     -1.65838578950641      4.97341793269408
  C   5.18249236526127     -0.70073892991768      6.01139658797162
  C   4.31068181835855      0.40942080012406      5.99299570122831
  O   2.57900948152797      1.56430521704451      4.90721995825039
  C   4.37415779426950      1.36029799902191      7.01316225496176
  C   6.10613404576961     -0.81994681118480      7.07220261820414
  C   5.28390887421076      1.22503556684249      8.04128688225900
  C   6.15413959181967      0.12552727561419      8.06748733732108
  H   3.69182068650355      2.19873657451796      6.97081419103327
  H   5.32756968912958      1.96560979501778      8.82884269041074
  H   6.77682983281437     -1.67052342085286      7.08857940571766
  H   6.86659901165577      0.02293148582011      8.87587000206792
  H   3.25407298851432     -3.17996515727234      1.09048379323082
  H   4.88341595085311     -3.33493598400752      2.93701490305176
  H   5.79798118757000     -2.50017109379478      4.98713575856062
  N   1.44019643335962     -1.25780058898034      0.77374614528214
  H   1.23782363153505      0.92528270786099      1.72446453097344
  H   1.58325940814959      1.40947472233697      3.33994041674087
  H   1.37659681646999     -2.07116542812011      0.18090658473214
  H   0.52539712129525     -0.94099456604353      1.06902384588550
