32
Coordinates from ORCA-job 521optt
  C   2.83308527895476     -1.23523579043516      1.71683285042337
  C   3.48860321818686     -2.44719413683728      2.00076411913838
  C   2.87146838696032     -0.18142951048252      2.64984444580079
  C   4.18317227840826     -2.59860396259381      3.16719506384082
  C   4.24927736107229     -1.56332393319995      4.12226358507143
  C   3.54932380087143     -0.34777851134596      3.87116117698697
  C   3.56844021889958      0.69431555192391      4.93478979739658
  C   5.03106379587314     -1.74246549131176      5.27731902716785
  C   5.19070417375698     -0.72325020457913      6.23963205597205
  C   4.49242980017204      0.49012331447043      6.07468050384332
  O   2.84115112740572      1.67274711262530      4.91744931756638
  C   4.63419114011049      1.50513982537188      7.02043388702443
  C   6.02454901010735     -0.88523659286011      7.36679360344165
  C   5.46358576860820      1.33375027225515      8.11082180199577
  C   6.15953234212670      0.12896953305921      8.28360244566703
  H   4.07892202458942      2.42183677670520      6.87342296137018
  H   5.57514552154257      2.12820211442723      8.83673033565823
  H   6.55675609433283     -1.81993098507704      7.49553333939182
  H   6.80406937141132     -0.00156828452397      9.14319152975275
  H   3.46297475700870     -3.26474744664660      1.29677611134403
  H   4.70566183074088     -3.52591328400023      3.36890297185510
  H   5.55006743492250     -2.68387346284751      5.41243287934306
  S   2.12475798072751      1.34640681674592      2.13021025716694
  S   1.94445624065861     -0.98318182023830      0.22415439901751
  C   0.55231843920479      1.27078094532814      3.01459846267011
  H   -0.02539673628612      2.12833308067956      2.67346069670183
  H   0.72608153771541      1.34547067862004      4.08420518423404
  H   0.02258729576502      0.35593337985734      2.75584630172601
  C   2.06792609337564     -2.59371927991063     -0.57418508679799
  H   1.49055374688553     -2.49472701954255     -1.49148694035823
  H   1.62822815773295     -3.38228548077941      0.03447682305091
  H   3.09589250815821     -2.84105420485739     -0.83404390746324
