32
Coordinates from ORCA-job 528optt
  C   2.22033008214631     -0.70479189282399      1.86261817050372
  C   3.09154498119722     -1.80381413070175      1.72570695587727
  C   2.38328593580111      0.13021469531760      2.96527168975391
  C   4.07631022650771     -2.05520436788939      2.64675542493706
  C   4.24697465431183     -1.21147336329431      3.76613732738303
  C   3.37101862839851     -0.10524492325300      3.90737846548969
  C   1.18857160565569     -0.48801141917217      0.84420635546053
  H   1.74498172192399      0.99034683761202      3.12019320901659
  H   2.97430475017759     -2.45996821351980      0.87136896816785
  H   4.73684470383873     -2.90501723504554      2.52432370241119
  C   3.50213629249116      0.81391277622664      5.06192339853580
  C   5.25364130523504     -1.44495166043138      4.72229227345615
  C   5.42865650626848     -0.59448300468116      5.84106927335863
  C   4.58086801442550      0.51934045343134      6.02489837203881
  O   2.75452298211895      1.76729351234247      5.20713906497562
  H   5.91374799122994     -2.29519489541136      4.59829848534832
  C   4.76777758063922      1.35124575143692      7.12969808033062
  C   6.44365078554910     -0.83368904355642      6.78942664537957
  C   5.76732428274835      1.09810151508681      8.04140294316897
  C   6.62624038124684     -0.00920963741437      7.88288545529794
  H   4.10480610511575      2.19880043408520      7.24523308389988
  H   5.89366483256804      1.75958476060498      8.88769963452142
  H   7.09563991937425     -1.68918512542082      6.65026387921356
  C   7.70410705425984     -0.31627435174094      8.83462210293967
  C   0.27337086671148      0.47695567273496      0.83750708326113
  H   1.19442272494472     -1.20244500877120      0.02651380541019
  H   0.20610936875915      1.22112709098790      1.62064021858990
  H   -0.44662642896266      0.54831129497473      0.03401060687267
  C   7.99905066580568      0.35709168785629      9.94068454258769
  H   8.30065475388149     -1.18764411029683      8.58239793680750
  H   7.44712081069892      1.23308711659008     10.25602957406849
  H   8.81670591493195      0.04454878413647     10.57551327093650
