32
Coordinates from ORCA-job 529optt
  C   2.26444395290972     -1.76731169051252      1.94295740046309
  C   3.39118955330520     -2.58013357447418      1.84764962247080
  C   2.16751599408910     -0.80085068901722      2.93427660197586
  C   4.41925895127964     -2.44352248691958      2.75030232996065
  C   4.33467839454944     -1.48581759590300      3.77944681140632
  C   3.20187374998357     -0.63084002547279      3.87474463875099
  O   1.01644156064800     -0.08191887691763      2.97881279195563
  C   3.12317384888568      0.36756294962668      4.96534435173594
  C   5.38206452370260     -1.39709870963831      4.73646788084223
  C   5.35321349344040     -0.46512786367303      5.80394284075209
  C   4.24391598794606      0.39440008083070      5.93558499279427
  O   2.19860115601208      1.15484164000004      5.08412833661040
  C   4.19836132724831      1.30337103519481      6.99147217261308
  C   6.40690524657996     -0.38009246365914      6.73817967240584
  C   5.23060297956810      1.36802471491266      7.90599688876349
  C   6.34030123596092      0.52311084675632      7.77240438072356
  H   3.33457661435459      1.95024145409978      7.06703473322640
  H   5.18696943185999      2.07483938629005      8.72392231383968
  H   7.26775228092984     -1.02359703253157      6.61652498671164
  H   7.15235410606307      0.58560202794435      8.48520437452192
  H   3.45516790342658     -3.31990470020128      1.06025934812160
  H   5.30481961003967     -3.05911997630866      2.68172430740554
  O   6.44244942826192     -2.23976674101943      4.63050272217977
  C   1.09590538530924      1.21469797746008      2.40253196966974
  H   0.14209235757575      1.69739720337321      2.59838546749737
  H   1.25676809207672      1.13314511013767      1.32345252794852
  H   1.89310378318985      1.79839189830590      2.86094642105412
  H   1.43659455657693     -1.86659211519537      1.25349125083499
  C   6.29184724101457     -3.45895153228117      5.35489863151209
  H   5.43357402186580     -4.02149925625935      4.97946075242411
  H   6.15532314261772     -3.25666586712501      6.41991129927898
  H   7.20461008872875     -4.02880512782298      5.20029717954909
