36
Coordinates from ORCA-job 52optt
  C   1.39827311440281      2.26215923688487      0.62427747234234
  C   2.40368724104792      1.34091224856735      0.91074712333681
  C   -0.00365900995371      1.80715466954573      0.39417594132849
  C   -0.27821293732174      0.37740390765829      0.42605204583223
  C   0.76712250921918     -0.50118006170024      0.69112089602919
  C   2.07490449117595     -0.00981342776773      0.93113978291775
  C   -1.61764755657069     -0.16058584790624      0.18630148412625
  C   -1.74705528327577     -1.61570949564550      0.24687251100706
  C   -0.69190728977510     -2.45334052262756      0.51277185384354
  C   0.56526827813437     -1.90705287378281      0.73589082733777
  C   1.59786391614612      3.75404516026679      0.54017788354611
  C   3.85187333653737      1.70734366853603      1.19515876827466
  O   -0.87830555416678      2.64578400266140      0.19028780824785
  H   2.84943514341431     -0.73972844273069      1.13879185009432
  O   -2.61835310068796      0.50938840124093     -0.05891690584177
  H   -2.74417083140806     -1.99678315079795      0.06543769630739
  H   -0.83384744830836     -3.52547156187134      0.54858778876184
  H   1.41325677126217     -2.54643544645889      0.94739650072493
  C   2.57714635307557      4.18176975772273     -0.56082760143031
  H   3.61420756729794      3.92308828106278     -0.35215285871757
  H   2.52541569183389      5.26516748554475     -0.67902168934236
  H   2.30152781935041      3.72945489944261     -1.51431070848258
  C   1.91460537508555      4.37350931047910      1.90837652542000
  H   0.62422884928174      4.14469345717725      0.25047632835856
  H   1.95172419977504      5.45978164002773      1.81267581896551
  H   2.86681788848846      4.04111204148048      2.32144305000506
  H   1.13102699193473      4.12598453557328      2.62520449963594
  C   4.29088845717930      1.21343446011505      2.57516767043215
  H   5.31081416900132      1.53955220064749      2.78340400087765
  H   4.27506106035249      0.12374749721517      2.63574848193853
  H   3.63795409888964      1.60353657011063      3.35716080827469
  C   4.77582725414618      1.17666328627560      0.09704748771749
  H   3.93962458164490      2.78783086976186      1.20186580227398
  H   5.80584074396209      1.48190104221980      0.28713502655736
  H   4.47825423963796      1.55410707759202     -0.88221160074597
  H   4.75401886919057      0.08565512347907      0.05711763004507
