22
Coordinates from ORCA-job 531optt
  C   1.19967085694187     -0.00211426347687      1.98590231882980
  C   1.15987384527176     -0.27597800213259      0.61271484261214
  C   0.09169223635058      0.51744335109119      2.62209607548824
  C   -1.07691021951466      0.77412680923367      1.90210140639190
  C   -1.12499473436649      0.50222181595604      0.52127262903753
  C   0.01540836589323     -0.02781811723791     -0.10940105704190
  H   2.03228405065400     -0.68420145461270      0.11934862093427
  H   -0.02067688127191     -0.23778009847026     -1.17170363527227
  H   2.10335268098401     -0.19970657513612      2.54735137745881
  H   0.09709905165091      0.73722602982193      3.68156691898648
  C   -2.24928774740051      1.32796825698062      2.60045085402986
  C   -2.32451624009710      0.76903906256659     -0.20340080499946
  C   -3.43820884342769      1.57022694487948      1.77618676811440
  C   -3.44423374971600      1.28727323990013      0.40940929098246
  O   -4.46988236512595      2.06951694187017      2.44833600896850
  H   -2.34699161532533      0.55516552366526     -1.26456251193177
  H   -4.33039409088514      1.47289590930831     -0.18065412512806
  O   -2.24692238592393      1.57692668182677      3.80011440409980
  C   -5.66711536185303      2.34824749668457      1.74915947422888
  H   -6.35748827085683      2.74775237072434      2.48567956686042
  H   -6.08261765761046      1.43804987480971      1.31087521204640
  H   -5.49617092437129      3.08941820174765      0.96515636530355
