24
Coordinates from ORCA-job 533optt
  C   3.20760829622683     -0.57272179641436      2.88379535494254
  C   3.91394649357165     -1.76979107425328      2.63287005325811
  C   3.55943333217415      0.23169421962226      3.92759505602130
  C   4.63831231293161     -0.11904986061127      4.77370225209096
  C   5.36638753390580     -1.32278073945732      4.53502355571455
  C   4.95641243229202     -2.12904904813246      3.43444075299532
  H   2.38320208056036     -0.30379020483936      2.23719395605410
  H   3.63289046730026     -2.40738027920616      1.80619249825496
  H   3.02131054830585      1.14975263328529      4.12667068739691
  Cl  5.79653319517729     -3.60673678895863      3.09726082416210
  C   5.01198561641447      0.70219747694863      5.85812073352004
  C   6.05529178801453      0.36858449184306      6.67711226520107
  C   6.79254134167393     -0.83198793973185      6.44042094400958
  C   6.43715663508447     -1.65236774388272      5.38071782691699
  H   4.46808840640227      1.61832168568096      6.05604937713696
  H   6.99545253401430     -2.56189942841191      5.20324712228610
  C   6.42136048227612      1.25358789592064      7.81299513329601
  C   7.88073246020072     -1.16036611184537      7.30190121294091
  C   7.54337945352036      0.82850771818496      8.62873956259321
  C   8.23160947126733     -0.33577697971754      8.36502724987812
  O   5.80663223854729      2.28722052962565      8.04733492440008
  H   7.81073944626486      1.47320506344323      9.45522154359822
  H   8.43464252445440     -2.07105465053069      7.11349717115329
  H   9.06389090941907     -0.61837906856174      8.99719994217848
