27
Coordinates from ORCA-job 535optt
  C   1.15774129609874     -0.60093532687555      1.99267063133240
  C   1.19902984714841     -0.63955266520833      0.58613766114576
  C   0.10440603069319     -0.02507141587065      2.66829243785212
  C   -0.95606005050768      0.54022578274052      1.96076977771239
  C   -0.94070335508693      0.51242685101425      0.55354520222632
  C   0.14807929991651     -0.08523919115183     -0.11314270259294
  C   2.40782383729167     -1.25356420272945     -0.08876865208979
  H   0.13765552027340     -0.10338248070398     -1.19611596933856
  H   1.97616159381251     -1.04252739681135      2.55072607862049
  H   0.07115325969566     -0.00004345988440      3.74971293193704
  C   -2.08788036558398      1.15866242860551      2.67819164632650
  C   -2.02646450935524      1.08561826928295     -0.16860762080254
  C   -3.14815560283772      1.72024747238663      1.86425446070926
  C   -3.10145773746669      1.67541069972397      0.48942073721612
  H   -3.97534335430114      2.17396807740448      2.39374964718268
  H   -2.00302768367768      1.05638478103620     -1.25089323581729
  H   -3.90883597354367      2.10236953350325     -0.09161639977540
  O   -2.13284274980884      1.19817489976423      3.90723766436061
  C   2.17902157530730     -1.62600501586099     -1.54882121239373
  H   1.30129658279540     -2.26201191021122     -1.67059350045811
  H   3.04585266453248     -2.16187576787922     -1.93616796456202
  H   2.04542452226743     -0.73463804538185     -2.16559254743445
  C   3.60825554491515     -0.30868618863031      0.03719178144410
  H   2.64407573450124     -2.16953483427919      0.46220414370476
  H   4.50104130015565     -0.76243768787240     -0.39571436789549
  H   3.81685980394486     -0.06426224681398      1.07892169425139
  H   3.40580296881996      0.62428904070274     -0.49307232286165
