15
Coordinates from ORCA-job 540optt
  C   -1.55355340061493      1.27720929207874      0.00000474623517
  C   -1.76192174010003     -0.08143458828420      0.00000254379172
  C   -0.18333556055426      1.78395695031827      0.00001474640698
  C   0.89624052813145      0.81798721378508      0.00000206491159
  C   0.64001572537087     -0.52215359108144      0.00000031703874
  C   -0.68965890055985     -0.97986475843546      0.00000295029758
  H   -2.77510699048812     -0.46549256336912     -0.00000147615918
  H   -0.88758082281207     -2.04374672449655     -0.00000074574633
  C   -2.66074620540179      2.27468651880851     -0.00000201541483
  O   0.04222561245894      3.00393772152510     -0.00001202069075
  H   1.90287087966365      1.21522605219963     -0.00000443095545
  H   1.45169604631386     -1.23786397356644     -0.00000550133821
  H   -3.63307640933952      1.78578103712471     -0.00000835642674
  H   -2.58206892320921      2.92632588927419     -0.87192233243748
  H   -2.58207983885899      2.92632552411896      0.87191951048718
