18
Coordinates from ORCA-job 544optt
  C   1.29519424869590     -0.05840379142384      1.88107200158837
  C   1.18403576940051     -0.30557445105397      0.51647126253476
  C   0.22708941076283      0.46369557531553      2.59494392159740
  C   -0.99111704657960      0.75666683951397      1.96398653840627
  C   -1.08824256947839      0.49889973013523      0.57126889097134
  C   0.00459872159289     -0.03036004017837     -0.13424564963489
  H   2.02806522628615     -0.71324944366548     -0.02361399022941
  H   -0.09788469426089     -0.21685531460825     -1.19577705945753
  H   2.21573656280566     -0.26946487004120      2.40716623890147
  Cl  0.49997562781304      0.72196972824349      4.27843593902580
  C   -2.17688738697814      1.31689900182563      2.66329475558331
  C   -2.29877080304647      0.77561375425502     -0.12975952055006
  C   -3.36060752584095      1.56490080191981      1.85995722514206
  C   -3.40967982293425      1.29975607897406      0.51269203856050
  H   -4.20663275543787      1.97375949555813      2.39588833671680
  H   -2.33077470864331      0.56438571165090     -1.19096476195275
  H   -4.31255465160866      1.49847565842094     -0.04999755989223
  O   -2.19595360254844      1.57182553515837      3.86323139268879
