14
Coordinates from ORCA-job 545optt
  C   -2.16041752112524      1.59605048209224      0.07062653010976
  C   -3.33454864495747      1.17701161439193      0.63730165623072
  C   -1.10174659828685      0.66503525670363     -0.23408697012883
  C   -1.32750659369229     -0.73612293158476      0.07516065559180
  C   -2.51007060430952     -1.13672223494962      0.64049396150928
  C   -3.50653500265253     -0.20369091919585      0.92735838843925
  O   -0.03328294429148      1.03440477108573     -0.74698489622325
  N   -4.34371854035811      2.05942363016741      0.99516421051750
  H   -4.43235342048227     -0.52716978143201      1.38785000644022
  H   -2.68239691861098     -2.17921308868128      0.87388256916408
  H   -1.98343767698593      2.63784951072713     -0.16631474575119
  H   -0.52982465928133     -1.42747710725891     -0.15957815342618
  H   -4.31040212919750      2.96452437513088      0.55414779700177
  H   -5.27462874576848      1.67681642280345      1.03298899052503
