44
Coordinates from ORCA-job 546optt
  C   2.40514412452723     -1.68771790761061      1.68127698885565
  C   3.34181137720196     -2.74149820029278      1.85668565491596
  C   2.35829780599591     -0.67056644527653      2.62590797758240
  C   4.20353819883779     -2.70314032376872      2.93477172452966
  C   4.17390047649846     -1.66180209843789      3.88352206649460
  C   3.21416799250938     -0.63901482884465      3.71854423170691
  H   1.65996515490706      0.14877267700881      2.50748160605825
  C   3.11888754287230      0.47061461769053      4.68947336888378
  C   5.06031732609174     -1.63445431816771      4.98204648452943
  C   5.02428107061965     -0.59205005852737      5.93861065519770
  C   4.07924918999988      0.45287024537525      5.81425052311203
  O   2.28748290552877      1.35559510380125      4.57163140051401
  C   4.04608359481435      1.47789006387030      6.75632272169785
  C   5.91877455792450     -0.56687491411707      7.03007689737434
  C   4.93186240896206      1.48348227764731      7.81658762559871
  C   5.87206803434147      0.45362681237799      7.95022741803744
  H   3.30987439756674      2.26094596064029      6.63060425035490
  H   4.90117957322667      2.28286310454812      8.54499539368944
  H   6.64472463062651     -1.36459003744376      7.13094282062783
  H   6.56421949141706      0.46144284248014      8.78217569137478
  C   3.40030437832297     -3.91769872716805      0.95031884005230
  H   4.90467888931283     -3.51773162893664      3.07673559394574
  H   5.78791598423914     -2.42920675075147      5.09495850056686
  C   1.49812426049875     -1.60434253156500      0.51055676096546
  C   1.97462356588132     -1.78185598184157     -0.78921644587334
  C   0.14900757730320     -1.30157818085744      0.69340958704250
  C   -0.70656181816151     -1.19117936132557     -0.39348437264299
  C   1.12237535250994     -1.66261183633198     -1.87509786195371
  C   -0.22238989824935     -1.37177492997887     -1.68119372840867
  H   -1.75245099804353     -0.96442396520370     -0.23234799001967
  H   -0.88782744916479     -1.28398336678578     -2.53002480671509
  H   3.02130893807212     -2.00913156627618     -0.94760425620830
  H   1.50965051991162     -1.79590874151550     -2.87684943674514
  H   -0.23247123166162     -1.16608258972458      1.69820293195826
  C   2.24593543126740     -4.63264452299840      0.63073022043371
  C   4.62082053888271     -4.34776812209422      0.43332389588313
  C   2.31262124404325     -5.74919716296964     -0.18697162075673
  C   4.68720752096530     -5.46185571600960     -0.39259316590084
  C   3.53308059611391     -6.16546552754137     -0.70497361794669
  H   1.40871263800062     -6.29598516122677     -0.42189063032403
  H   3.58250560727393     -7.03380850038372     -1.34877519473020
  H   1.29195630055411     -4.30766231272533      1.02684751697382
  H   5.52079455941982     -3.79144364976867      0.66670730707103
  H   5.64145763823830     -5.77680373897282     -0.79457352780315
