26
Coordinates from ORCA-job 551optt
  C   2.12645752570799     -1.06426309015766      1.70825441177423
  C   2.96633846875068     -2.18125694250001      1.68866921085989
  C   2.21413535991162     -0.13874285233066      2.73019611234494
  C   3.89127835704131     -2.36919213141113      2.69178988519323
  C   4.00561019282556     -1.43722958874553      3.75379096442366
  C   3.14476930134641     -0.31687544982570      3.74848696224525
  H   1.40452277102317     -0.93163682801127      0.91358689903123
  H   1.57431707473500      0.73208663803882      2.76513806662247
  C   3.22992151962413      0.68123760316800      4.83614178105194
  C   4.94982633308913     -1.62302691884830      4.78497060684293
  C   5.06964345621465     -0.70587384059556      5.84846703137900
  C   4.23325214880308      0.44102659824494      5.89702010949434
  O   2.50191157143471      1.65936124931935      4.85667283557325
  C   4.33936874357275      1.35635710882088      6.93360406424776
  C   6.01138646338642     -0.88055293748518      6.89868049296085
  C   5.27081748041815      1.15684412955262      7.93925447074717
  C   6.10380060224963      0.04179874208772      7.92179710296564
  H   3.68222906921502      2.21480122238636      6.92975089993837
  H   5.35601254456577      1.86954470275207      8.74880742384035
  O   6.85239851005367     -1.93903873815447      6.95231994499412
  H   6.83460696972441     -0.12811369110082      8.70085128912966
  H   2.89335769379017     -2.90529949520562      0.88491671830774
  O   4.73026422210537     -3.43649626304652      2.72455647848100
  H   5.57556291636727     -2.50255252174002      4.71567201609841
  H   4.57583244754611     -3.99907437306730      1.95921767316824
  H   6.70884825649774     -2.53338233214499      6.21077654828425
