24
Coordinates from ORCA-job 552optt
  C   2.14069508377485     -1.07998027088536      1.71270623642006
  C   2.99047907251715     -2.18612522617775      1.72879712916282
  C   2.23981895978802     -0.15801260828209      2.73347548795807
  C   3.92089786771601     -2.39821173801839      2.71026589838486
  C   4.01751892407432     -1.45447198328202      3.75043625176837
  C   3.16784186607573     -0.32550347653489      3.76000602656593
  H   1.42760404695991     -0.97150874988517      0.90744603969364
  H   1.60107247688222      0.71472197756624      2.76389397188757
  C   3.24590220835252      0.67694797591400      4.84130186889886
  C   4.94816391168132     -1.60594756254025      4.80037975503807
  C   5.08618902738709     -0.69855000092713      5.87133585683747
  C   4.24587108966903      0.43718472760753      5.90478515513248
  O   2.51957031306719      1.65645352531952      4.85811269624959
  C   4.36109944661211      1.34381434016786      6.95497230406549
  C   6.03017167098426     -0.89622117872877      6.89931342922054
  C   5.28846396862627      1.13898581396935      7.95796887483386
  C   6.12343606308001      0.01486047750359      7.92505281677431
  H   3.70462140988438      2.20386085866659      6.95670590889624
  H   5.37164416527576      1.84716973447028      8.77144417595646
  H   6.67204956699880     -1.76568322763908      6.86923366735483
  H   6.84861574814622     -0.13900875241800      8.71333581022267
  F   2.88473124787167     -3.07753831973322      0.73774374608108
  H   4.55871492356937     -3.26967414484329      2.68027346231976
  F   5.74092694100570     -2.67604219128951      4.77734343027686
