32
Coordinates from ORCA-job 558optt
  C   2.00948142132487     -0.72215297945133      1.66976097898760
  C   2.86726932539502     -1.83579616986129      1.56615696576420
  C   2.17766034734455      0.14100588026881      2.74941358427565
  C   3.84816542411493     -2.07037277723971      2.49495372643295
  C   4.02656075127159     -1.19174497092414      3.58604897582622
  C   3.16496722021664     -0.07525218581709      3.69744697083781
  C   0.98288299983771     -0.52174226636508      0.64257501650532
  H   1.54170038536188      1.00619244833979      2.88217623406233
  H   2.74219963442733     -2.51568164731413      0.73171414778895
  H   4.49900010549427     -2.93121204594060      2.40144389123395
  C   3.29003888060483      0.87264579043924      4.83285199195748
  C   5.02224057412139     -1.39589214322666      4.55478978027268
  C   5.21859985222292     -0.49981576783352      5.63406793913864
  C   4.40176111856667      0.65220160248481      5.78766302903246
  O   2.48721983241727      1.78383835944833      4.95632193428367
  H   5.67078493734932     -2.26002667990522      4.47430903938054
  C   4.64601007782426      1.53971876949417      6.85635223803351
  C   6.24369821256724     -0.75792078490910      6.56487508168264
  C   5.68155137355506      1.25065445130919      7.74318019734363
  C   6.46589640477689      0.10657118087676      7.60877458080481
  C   3.88167061009425      2.78626148039688      7.06897308817823
  H   5.89057825904347      1.95407574743056      8.53817644037460
  H   6.85561165425772     -1.64227184805530      6.43738150270183
  H   7.26068293174904     -0.08638865033741      8.31755682671544
  C   0.10378728128020      0.47462810655229      0.58491538920774
  H   0.96160354978363     -1.27683455847957     -0.13749417786551
  H   0.06676255958635      1.26218106097604      1.32655332506776
  H   -0.61533080967358      0.52935678789729     -0.22066664545683
  C   3.51712015585645      3.21635192955304      8.27090483659242
  H   3.61473202042206      3.35640439839016      6.19070920899570
  H   3.70980030369904      2.63858585668079      9.16736213495334
  H   2.98288260510662      4.14925162512199      8.38927176689013
