33
Coordinates from ORCA-job 560optt
  C   1.95446497198514     -0.47215644678643      1.75148561799136
  C   3.10878792917942     -1.16020371371839      1.32824069602055
  C   1.94445354771300      0.07183618218483      3.02426638201504
  C   4.19986939966059     -1.29159186929038      2.14850183461317
  C   4.19683518426007     -0.73802144566229      3.44879409024058
  C   3.03991789028803     -0.04874821755550      3.87666324145113
  C   0.76210897863761     -0.33782216218480      0.83354157365252
  H   1.07694047050653      0.60828351752777      3.39016111551998
  H   3.13543362434905     -1.59389272343097      0.33541877468572
  H   5.08047558746920     -1.82317350604027      1.80803300935351
  C   2.97789879193980      0.54797539563366      5.22749482783602
  C   5.31010172238232     -0.86157043597978      4.30742118990415
  C   5.31012299074153     -0.30719477352969      5.60880233365463
  C   4.17455065548501      0.39081828174186      6.08137288351081
  O   1.98592581635173      1.14177931464206      5.61991013167337
  H   6.18816728876123     -1.39376932677365      3.96128019029096
  C   4.17706847892931      0.93724922440039      7.36323576062721
  C   6.42891495304277     -0.43350427123005      6.46052205260321
  C   5.28287263784751      0.80264625959574      8.17955434529061
  C   6.41331258105266      0.11225281798154      7.72201081338263
  H   3.29163640209093      1.46489581136063      7.69284598732437
  H   5.27862600852491      1.22942811251241      9.17376255592733
  H   7.30117829733307     -0.96766968272755      6.10355591381788
  H   7.27747886586859      0.00882678086544      8.36535807259965
  C   1.12354394076652      0.43211505182861     -0.43851914608365
  H   1.53030650909853      1.41555896648090     -0.20210952307702
  H   0.24127465925134      0.56426760512281     -1.06655161540977
  H   1.86973280198045     -0.11114099229606     -1.02197090756032
  C   0.17138819468332     -1.70670763000953      0.48828825357682
  H   0.00342997788253      0.23395206263920      1.37348744346663
  H   -0.71678721442039     -1.59152078195827     -0.13475362601886
  H   -0.10626006223673     -2.25462360343321      1.38894460481178
  H   0.89237811859411     -2.31079380191102     -0.06640887769236
