22
Coordinates from ORCA-job 563optt
  C   1.22802355929723     -0.04906206951250      1.81832036353669
  C   1.11244848489696     -0.29493302260909      0.45146802735361
  C   0.15734179791291      0.47606948101409      2.53903651011106
  C   -1.06161016997093      0.76454742578587      1.88274207552530
  C   -1.15458423652111      0.50660723705897      0.49525015291082
  C   -0.05947770298060     -0.02381802533097     -0.21029021995071
  H   1.95946476434862     -0.70329687227551     -0.08429061596917
  H   -0.15573392396674     -0.21225293385306     -1.27161608689751
  H   2.16029513715308     -0.27109831441480      2.31451190787530
  O   0.23043533051467      0.72686324792911      3.85399242009436
  C   -2.23945748952658      1.32265669585732      2.58700703611428
  C   -2.36466086715015      0.78313568239773     -0.20717823256529
  C   -3.42629899438058      1.57151793201444      1.78266323200866
  C   -3.47623380236572      1.30721687786538      0.43564198986456
  H   -4.27219987127276      1.98003203359740      2.31928853127035
  H   -2.39611412916643      0.57197061752714     -1.26843958756213
  H   -4.37928517820105      1.50606150369372     -0.12705955680581
  O   -2.26546570639567      1.57949076839063      3.78778273595028
  C   1.43306607301506      0.44924052650536      4.53581618991931
  H   1.25532949076090      0.72649583240911      5.57078365198232
  H   2.26112697015259      1.04115572433906      4.13702183246263
  H   1.68419046384631     -0.61329034838940      4.48122764277106
