22
Coordinates from ORCA-job 567optt
  C   1.24969315222590     -0.20752657364389      1.59586452579048
  C   1.02687282788139     -0.49938678853377      0.25010012326999
  C   0.25742464182499      0.38389445260316      2.35259475318695
  C   -0.96535534007949      0.69800607628074      1.76796546786035
  C   -1.19986431768979      0.42224139006544      0.40200361096572
  C   -0.17567189364538     -0.19527499208844     -0.36642780495575
  H   1.79586627685049     -1.00119955659319     -0.32329766360909
  C   -0.38162806505979     -0.53134435156738     -1.78636097876307
  H   2.19904078599496     -0.46300972483046      2.04814725966657
  H   0.39827828965930      0.61079818647939      3.40090568571199
  C   -2.01675329551975      1.33375560438121      2.59340317135622
  C   -2.44919263928236      0.80163889712371     -0.16740065120644
  C   -3.26063271754269      1.66538575541692      1.93086052907059
  C   -3.44725244170941      1.40461125042637      0.59500121694121
  H   -4.02515238715289      2.13149989544337      2.53796215581496
  H   -2.62515326751013      0.63543984183494     -1.22061602490880
  H   -4.38136667827868      1.67339140612002      0.11848700259352
  O   -1.84198398444704      1.57190809675110      3.78696228580701
  C   0.55617534191154     -0.43716262658344     -2.72145021462111
  H   -1.36636381557844     -0.88723929971023     -2.06994058829687
  H   1.54607885791529     -0.05827736037556     -2.49673032608675
  H   0.35633066923198     -0.72384957900002     -3.74505353558769
