44
Coordinates from ORCA-job 573optt
  C   2.44062467260628     -1.78209698062290      1.46724001296303
  C   3.39111033030557     -2.82167417906577      1.48065278034166
  C   2.41714989320407     -0.83189304497879      2.46620311551972
  C   4.30150164812454     -2.87485766176295      2.51839955413188
  C   4.29256244957629     -1.91800667190812      3.55340344960788
  C   3.33312604234657     -0.88412149368228      3.51447202396067
  H   1.69931761249973     -0.02210845391596      2.45487296372870
  C   3.30680717979220      0.14810985580589      4.56672241382069
  C   5.22201394501647     -1.99254135889764      4.61938591100146
  C   5.22670734633130     -1.05431888091414      5.67853719872303
  C   4.30873577060139      0.02662530767610      5.65130426794084
  O   2.50044347286146      1.06393458836851      4.54510210347599
  C   4.33945711352563      1.00774546413759      6.63650196582308
  C   6.15916872572576     -1.12989606845874      6.75388945553432
  C   5.27199732625485      0.94178408753928      7.65262989976206
  C   6.17167753947667     -0.12522635729540      7.70383217531422
  H   3.62095679368783      1.81422118672048      6.57513604228971
  H   5.30091996778698      1.70573560991334      8.41821149511417
  C   7.11260004472905     -2.25743746508617      6.89382694981473
  H   6.88231234744233     -0.18957188013817      8.51879867099098
  C   3.40911892743647     -3.83692325508696      0.40256720304161
  H   5.02517354959975     -3.68066753954165      2.56089811285508
  H   5.96155713905197     -2.78097236229641      4.60108402392825
  H   1.73866500003810     -1.71875412097542      0.64555284431152
  C   2.21750220333571     -4.33574765009855     -0.12432290327504
  C   4.61659487902649     -4.31671354304508     -0.10567844563510
  C   2.23278298734529     -5.29159207949793     -1.12891641703597
  C   4.63249024931316     -5.27011375517342     -1.11238476851751
  C   3.44039708722400     -5.76187163236285     -1.62679440408502
  H   1.29885707861726     -5.67478187677446     -1.51915490418748
  H   3.45252154651519     -6.50605846862083     -2.41224389756403
  H   1.27187155118033     -3.98876756527020      0.27348009656147
  H   5.54966036001444     -3.91973898250063      0.27468681728570
  H   5.57836466590893     -5.62391183792122     -1.50164374920231
  C   6.66580280061107     -3.57902830658010      6.94011965530803
  C   8.47721086179993     -2.00718221550230      7.03398231810708
  C   7.56216141808706     -4.62222184592309      7.11715406953283
  C   9.37505907782884     -3.05103285959985      7.20646823224187
  C   8.92013627322017     -4.36151043428018      7.24782616132110
  H   7.19861008349503     -5.64072458017716      7.16034200567950
  H   9.61938074207373     -5.17598028206432      7.38413352630391
  H   5.60523378966968     -3.78312228104309      6.85423650423001
  H   8.83342801844977     -0.98499976935966      6.99352358516251
  H   10.43185948826243     -2.83965835973869      7.30557188377306
