16
Coordinates from ORCA-job 580optt
  C   -2.22434546794267      1.60492836998618      0.05647866017623
  C   -3.41810624871470      1.14321742980779      0.58389821421411
  C   -1.11132609501478      0.68325096196497     -0.21554545664042
  C   -1.34066813451358     -0.69820366731540      0.09850841468650
  C   -2.52491024423604     -1.12876680753145      0.61598788936341
  C   -3.58071579258350     -0.21335933920663      0.86726733688500
  O   -0.05209910656348      1.12726130463493     -0.69398542351842
  H   -4.23181327174748      1.83338045853794      0.77675750930599
  N   -4.77178968717696     -0.68664692701996      1.35244997921593
  H   -2.68169006597405     -2.17701926817824      0.84090373137828
  N   -1.97018324499264      2.89227451134234     -0.23932901519807
  H   -0.52717491016417     -1.38428812588649     -0.09670681043514
  H   -2.66556864676565      3.61009263608639     -0.16288464176439
  H   -1.07046683596455      3.08909235584009     -0.65145640316292
  H   -5.42747518425801     -0.03029916416748      1.74006981118600
  H   -4.78663706338765     -1.60420472889497      1.76315620430786
