30
Coordinates from ORCA-job 582optt
  C   -1.53943457802089      1.49754611731100     -0.26658768168832
  C   -1.81034849916990      0.14844835493135     -0.11888548234931
  C   -0.19573809605437      1.90598388481357     -0.70885780793743
  C   0.79162596062321      0.88410238084177     -0.97822757324750
  C   0.48415944052338     -0.43416227990987     -0.82505553394218
  C   -0.80125480487570     -0.79436433832901     -0.40123757130878
  C   -3.15108673748523     -0.40424587240533      0.33569524092990
  H   -1.02919998192822     -1.84679895602365     -0.28469476835663
  C   -2.51026551960526      2.62859329160698     -0.00788931687325
  O   0.10541037490380      3.10247925762700     -0.85266747123160
  H   1.76598052073027      1.22558781110468     -1.30125329976125
  H   1.21774241717518     -1.20427666328488     -1.02536353448982
  C   -2.90714202086447      2.74846930610250      1.46841893140159
  H   -3.49866796832255      1.90501041809464      1.82415792893419
  H   -3.49876212627889      3.65384797940010      1.61467817129112
  H   -2.01842167455746      2.82262015542345      2.09624454045957
  C   -3.71789679614864      2.61926125990371     -0.95280786478693
  H   -1.94946517287386      3.53200834464480     -0.24394330362963
  H   -4.29167467375174      3.53769272373693     -0.81747074715316
  H   -4.39268005532946      1.78077211112352     -0.78290856712409
  H   -3.38876724322925      2.57941667803753     -1.99188903917265
  C   -3.79894858953030     -1.25398422225614     -0.75981361525813
  H   -4.78189122263673     -1.60148987656030     -0.43783721405970
  H   -3.19469842028125     -2.13372064866853     -0.98929483607871
  H   -3.91942373818164     -0.68006383481065     -1.67970201294975
  C   -3.01422005848101     -1.19292147538421      1.63994044719010
  H   -3.81698304299163      0.42854194775790      0.53398276297320
  H   -3.99381746859998     -1.53155480079448      1.98090648427557
  H   -2.56969457752699     -0.57790192038711      2.42369707766548
  H   -2.38627564723035     -2.07601713364733      1.50867565627807
