26
Coordinates from ORCA-job 585optt
  C   2.26490332493398     -1.25593294115200      1.82158945373688
  C   3.08596320357649     -2.38843717587948      1.88751040493809
  C   2.37391824736839     -0.28351919724577      2.79076376660628
  C   4.00419792605002     -2.52883108035299      2.90043985484020
  C   4.14471688600143     -1.53733028274303      3.89751287327469
  C   3.29695635997249     -0.40910694971365      3.83105647283570
  H   1.75108256163162      0.60118032086533      2.77971719437344
  C   3.35758332313495      0.65629070766895      4.84564166739687
  C   5.10801663299043     -1.64689588647651      4.94968299961306
  C   5.14515722175421     -0.68087271376508      6.00456165111406
  C   4.30588200070852      0.45457372126772      5.95345322532345
  O   2.64693313565134      1.64973470316699      4.77855774181818
  C   4.36015638379670      1.41525603589886      6.96586006177374
  C   6.00596836982202     -0.81620263814366      7.11741120869416
  C   5.21808827425160      1.26960427290274      8.03300315663236
  C   6.03979916685053      0.13786116738754      8.10591663007194
  H   3.70268589281127      2.27026968706286      6.87879985732381
  H   5.25311602949581      2.01665715455457      8.81452124226889
  H   6.63297615523691     -1.69079989787306      7.22958995015974
  H   6.70262874502767      0.00632515829928      8.95151032903313
  H   2.99352708145220     -3.16587097340697      1.14008388791248
  H   4.59569039940530     -3.43422675004748      2.93253923413527
  N   5.97750178503326     -2.70367751698104      4.96666127930327
  H   1.54608025031825     -1.15311610139905      1.01987413369561
  H   6.12989991345800     -3.19586133882548      4.10327669972841
  H   6.80661072926657     -2.61552148506959      5.52862502339620
