32
Coordinates from ORCA-job 588optt
  C   1.99848410604095     -0.93959431563108      1.65886596448610
  C   2.93092107908768     -1.97075203967955      1.42699180747351
  C   2.11275616756490     -0.08684652124299      2.73162954965520
  C   3.96592555525526     -2.16898201423613      2.33712234633643
  C   4.09114142640657     -1.29249260478454      3.45599508101285
  C   3.15900915565467     -0.24350387629282      3.63393792229734
  H   1.18774708802384     -0.81074057606983      0.95214546918447
  H   1.40540060568749      0.71478137744405      2.89727739370186
  C   2.73416466891036     -2.74814321892699      0.18434069571446
  C   3.25983320253159      0.68704393076738      4.77834351501801
  C   5.12038987085901     -1.46642816196830      4.41156274903819
  C   5.27556941761700     -0.59860284006963      5.51932220162515
  C   4.37769956471557      0.47260939047508      5.71870392655649
  O   2.45360217579711      1.58914530782771      4.93840721827334
  H   5.81207663942941     -2.29131765048814      4.30850967153098
  C   4.53844459342016      1.32671144623517      6.80715574656357
  C   6.32419261981472     -0.78191953260630      6.44615813878466
  C   5.57466190484734      1.13232761037634      7.69965861459810
  C   6.46983866490025      0.07033808759856      7.51494798170265
  H   3.83118345228296      2.13674391094508      6.92824996641492
  H   5.69681675661766      1.79877273702267      8.54318628594756
  H   7.01443114169901     -1.60404551407649      6.30053857948099
  H   7.27910032583333     -0.07910781418932      8.21783830976096
  C   3.67871859420399     -3.17043307277983     -0.64459735271347
  H   1.69473771887904     -2.90435463390424     -0.08940716293107
  H   4.73056786783671     -3.01634240008214     -0.44326211211513
  H   3.42074225415906     -3.68262256754217     -1.56207730371502
  C   4.94430351276386     -3.27747360596932      2.21004344646916
  C   4.62682466057692     -4.55970571980644      2.29574015104786
  H   5.98531988177257     -2.99484859200277      2.07343275624674
  H   3.60028168705146     -4.87496517261646      2.44025115744559
  H   5.37922363975942     -5.33285135372652      2.21040728510744
