25
Coordinates from ORCA-job 591optt
  C   -1.05964144130984      2.60584746315145      5.51734136899316
  C   0.29961166352316      2.73665511022821      5.82765363313481
  C   -1.45344589023140      1.86044600777826      4.42573176188014
  C   -0.49685305012824      1.23268299631078      3.62468398782899
  C   0.87054084452679      1.35878228234748      3.92958231973848
  C   1.25181240759362      2.12234188764202      5.04571454772628
  N   -0.39317672089631     -0.89918755294291      0.60912076526059
  C   -0.92227802794685      0.44365255957829      2.46678375674605
  C   1.83382271550113      0.70880926465155      3.09844924512073
  C   0.12746432665407     -0.19649401311865      1.65684079100593
  C   1.47786196234490     -0.03945338681597      2.00570777121582
  O   -2.10515696205749      0.30146587195179      2.15502244394280
  C   0.13293809070780     -1.66560808500581     -0.42377377777660
  O   -0.63283811327716     -2.16558868844112     -1.21120907958986
  C   1.62136717010979     -1.84870039358592     -0.52879248838954
  H   1.81122295126433     -2.47707222392857     -1.39323334218686
  H   2.01634962272388     -2.32970455582143      0.36636972136791
  H   2.12177471015592     -0.88879142386874     -0.65772052135750
  H   -2.49719126521170      1.74451331273959      4.16545250899270
  H   -1.80155132520682      3.09189781480445      6.13698055640320
  H   0.60174095669313      3.32294121254430      6.68557531286918
  H   2.30443997745734      2.22091691314771      5.28219436629946
  H   2.88233266326667      0.81592591738423      3.34700717319766
  H   2.25828213933220     -0.50025510821530      1.42472983897271
  H   -1.41120940558890     -0.84593318251569      0.58612733860367
