26
Coordinates from ORCA-job 593optt
  C   1.26502701940211     -0.20798460717220      1.74463338882465
  C   1.03439420006291     -0.33120283619943      0.36790468810030
  C   0.27763965455543      0.28326099164907      2.57042379770287
  C   -0.96003893593898      0.66859980210662      2.04276158348315
  C   -1.19761914817549      0.54370919382747      0.66217013554653
  C   -0.17946691266859      0.03752380747260     -0.16434564706529
  H   1.81279888164929     -0.71867012475169     -0.27662650612153
  H   -0.36500984156762     -0.05768484961435     -1.22769220125313
  H   2.22092486944600     -0.50180028688483      2.15818050761259
  H   0.42958569310070      0.38196333392673      3.63696417434530
  C   -1.99905241809169      1.17259153765164      2.95307486753949
  C   -2.46883062981819      0.93657907053924      0.13999064521516
  C   -3.25363773480479      1.61932756419225      2.34126346572462
  C   -3.44330861806322      1.44544508208781      0.94410436166292
  N   -4.23911565613955      2.13944355953982      3.11205483915084
  H   -2.64479708739371      0.84230908025194     -0.92441081641120
  H   -4.37425654943630      1.75959876881503      0.49416808804699
  O   -1.82732787971207      1.17765874625552      4.17712710196002
  C   -5.58407752430305      2.27405910354458      2.58838328921996
  C   -4.00726799402199      2.74778802772275      4.41798984758285
  H   -2.99810989314430      3.13759346129363      4.48453458240013
  H   -4.14388559993005      2.02754950638165      5.22542358098596
  H   -4.72031980946883      3.56436535555947      4.53387240303671
  H   -5.68751018179296      3.15264136240855      1.94226344901899
  H   -6.27193237481972      2.37811974268158      3.42457828237895
  H   -5.86537552892515      1.38631560671444      2.02383809131198
