24
Coordinates from ORCA-job 594optt
  C   -4.79774319241565     -0.43945002235921      3.44240772298290
  C   -3.62813614051067     -0.02203087453424      4.09239683167637
  C   -4.90149711931178     -0.29311986332384      2.08498259076057
  C   -3.84589056605099      0.27872058632656      1.33226459678993
  C   -2.66811292875748      0.73172213930287      2.00201103444669
  C   -2.58808423780901      0.55218261358566      3.38777427698628
  C   -3.94898001008230      0.37967418031293     -0.06018434614337
  C   -1.60188681883834      1.30357380894608      1.19661400179334
  C   -2.88463183814784      0.90857696062047     -0.86272324279636
  C   -1.69478311991779      1.36241092573069     -0.14829851054667
  O   -2.96993803716987      0.98189696512480     -2.09515160556681
  H   -0.88316800794478      1.76583858568678     -0.73952985996115
  C   -0.33793229983329      1.87698027569259      1.76902883108599
  O   0.72625570841512      1.81713060060274      1.21881997374367
  O   -0.52670631728899      2.52338323215902      2.92553209857791
  C   0.63930532630602      3.14998376533790      3.46391555134412
  H   1.02305089745754      3.89063668677897      2.76444652744423
  H   1.41315183162695      2.40780771241789      3.65312045587576
  H   0.32136379721000      3.62226885243144      4.38801935851569
  H   -4.84049391720050      0.04322705929746     -0.57475145944099
  H   -5.78944271605346     -0.62055280741373      1.55848669156989
  H   -5.60617317720236     -0.88038318475068      4.00976805372519
  H   -3.53560812528404     -0.14957149679501      5.16300802533547
  H   -1.70346899119641      0.86802329882183      3.91753240180131
