32
Coordinates from ORCA-job 604optt
  C   2.50937823140929     -1.36189138558156      1.95471764718286
  C   3.39386141197250     -2.43767457929251      2.03819440780793
  C   2.49736732135993     -0.34621563826364      2.91537101737587
  C   4.28377797887670     -2.51415446640699      3.09575216963853
  C   4.29787919912239     -1.51569637214281      4.07740097747311
  C   3.40329653346940     -0.41486408427439      3.99642524626298
  S   1.37222854309033      0.99876319827069      2.78641360808457
  C   3.44348728800905      0.62228176663651      5.03460303220644
  C   5.21510150821601     -1.62060468605476      5.15314923349607
  C   5.28290534812718     -0.65516796311790      6.17840035329659
  C   4.41669532361942      0.45826898395984      6.13940761886392
  O   2.70561396001644      1.59713859942966      5.00298119728874
  C   4.47305280829592      1.41797095101917      7.14622878272695
  C   6.19647967356667     -0.77104999562386      7.24841838417304
  C   5.37387428998595      1.28710346790982      8.18651808819581
  C   6.23841198915332      0.18552850191388      8.23444170214084
  H   3.79586853074391      2.25978643248223      7.08772154963643
  H   5.41298141123039      2.03594114773264      8.96646454860262
  H   6.86221588977389     -1.62495216119163      7.27986414290967
  H   6.94153186266324      0.08872110647105      9.05144815974765
  S   3.45806465235784     -3.74066914776102      0.86140424573620
  H   4.97435037187413     -3.34525859197653      3.17285971632043
  H   5.88191926161331     -2.47355809835053      5.18378251625574
  H   1.82288151547157     -1.31815254875223      1.12819257586206
  C   0.46079170504913      0.59005666718720      1.28618155141661
  H   -0.25686430908572      1.40145686578082      1.17728924635392
  H   -0.08609509351241     -0.34764813045541      1.37789751980355
  H   1.10135223193791      0.57289319572013      0.40514145275333
  C   2.18466111001078     -3.29179222205689     -0.32376559546643
  H   2.19498807208066     -4.07935574795756     -1.07444636688076
  H   2.40889998091710     -2.34141114498036     -0.80550926144987
  H   1.20124139858362     -3.26083392027300      0.14258053218442
