33
Coordinates from ORCA-job 609optt
  C   1.34664113222881     -0.85510403320256      2.16511554262304
  C   2.04530284072845     -2.06344406665893      2.09305443859516
  C   1.82478789210032      0.15051378015930      2.97822952998837
  C   3.21130893744093     -2.24457182935354      2.80097403494915
  C   3.73681725548510     -1.22682380536387      3.63362339375109
  C   2.99238044132205     -0.02592118541024      3.71862329400117
  H   0.43609106648205     -0.71657525188361      1.59771162029691
  H   1.30917897400500      1.09707911363329      3.07262285154512
  H   1.66705432482295     -2.86979027725148      1.47786141292078
  H   3.70498530145484     -3.20243059520111      2.73122684897167
  C   3.42551017230132      1.07395985359613      4.59857969525957
  C   4.95622430321764     -1.39226434122079      4.37887097096174
  C   5.28607794738099     -0.42474096481727      5.38777100944494
  C   4.56572595189253      0.79014313893195      5.48857858559179
  O   2.84711705134854      2.14814294910502      4.61649549229689
  C   5.85780324307605     -2.56749120912817      4.06049125290945
  C   4.90270307615808      1.74918164826308      6.44238147766827
  C   6.31912696533648     -0.63108394289940      6.33257443787565
  C   5.92995649854319      1.52624964864470      7.33439731113411
  C   6.62839807731627      0.31692663716892      7.28057522020325
  H   4.32419072509435      2.66338006598707      6.46018302320098
  H   6.18429537807894      2.27104930006329      8.07661091914527
  H   6.86359918438771     -1.56012717803415      6.34045879329835
  H   7.41811446012830      0.11733085221401      7.99352392509944
  C   5.69231194370047     -3.72403631419185      5.05604739156799
  H   5.99566962334807     -3.44425960472940      6.06430386057290
  H   6.30087775130389     -4.57451018113970      4.74356114275335
  H   4.65097548262720     -4.04602048096670      5.10329941065662
  C   7.33123150699238     -2.20119917605457      3.82449525548359
  H   5.52731297259932     -2.94490522516160      3.09559001433953
  H   7.81836399031781     -3.02673053799408      3.30327524164375
  H   7.89210643425156     -2.01949089297230      4.73734238890987
  H   7.41355909452798     -1.31200589413137      3.19867021233985
