16
Coordinates from ORCA-job 60optt
  C   -2.93900939375831     -0.12070335080527      0.04465929790728
  C   -2.13845178132093     -0.62899322829932     -0.91797622528713
  C   -2.47395236853068     -0.03555149599040      1.44122040450453
  C   -1.10873243013643     -0.52851749209904      1.76509771617104
  C   -0.33489770228373     -1.05668256754180      0.82555198846377
  C   -0.79195776468080     -1.13087440300509     -0.58768667756523
  O   -3.19804014681329      0.40991306121382      2.30707909691537
  O   -0.06712378345825     -1.57445577228186     -1.45385677079195
  N   -2.53846478832157     -0.74608022865848     -2.23387743013821
  H   -0.81140637299699     -0.43966850612907      2.80206340245782
  N   -4.19838225374200      0.37882168751814     -0.22006981602801
  H   0.65797851067779     -1.44252360909918      1.01770753809171
  H   -3.09946208544559      0.01971062732996     -2.58056759074646
  H   -1.78033180660581     -1.00199356232060     -2.85245154622742
  H   -4.72866641994686     -0.13861789155224     -0.90732599020660
  H   -4.72170941263649      0.58399673172043      0.62083260247952
