32
Coordinates from ORCA-job 620optt
  C   2.40453337143545     -1.39778213940325      1.88730748899537
  C   3.25561924410723     -2.49947094670681      1.93176834815785
  C   2.45986020164272     -0.39450855507294      2.85739622430759
  C   4.18166905993044     -2.63169340437443      2.93739714730269
  C   4.27334910056993     -1.64577483806547      3.93668057969061
  C   3.40781261401725     -0.51931823536427      3.90143952471647
  S   1.38348687454930      0.99458191146401      2.79085246719611
  C   3.51621046682806      0.49896683261591      4.95577541698666
  C   5.23235535302461     -1.79054879128797      4.96870598563045
  C   5.37305179265178     -0.84439430288314      5.99520890447001
  C   4.53540526340455      0.29503088343592      6.01195824789960
  O   2.79742989339205      1.48785901757999      4.97683082472638
  C   4.65586227539746      1.23840342475213      7.01802747364201
  C   6.32676791889523     -0.98328944121492      7.02650595029003
  C   5.60052180838202      1.08583259934863      8.02973347990430
  C   6.44043162776835     -0.04355932069556      8.02058144951143
  H   3.99541774270126      2.09694525000275      6.99688884548982
  S   5.65443443671477      2.34198405972485      9.24712641859687
  H   6.97685126207771     -1.84999033142006      7.02719406698081
  H   7.18143004272309     -0.18204587712481      8.79459626824277
  H   3.17862894737524     -3.25461593337506      1.16000904631534
  H   4.84591037880828     -3.48554245427882      2.97483287158712
  H   5.87449745647433     -2.66303209027520      4.95887229772486
  H   1.69493327523136     -1.33755037323413      1.07832087202581
  C   0.42829611522304      0.65839242687339      1.30021148689267
  H   -0.25218723735462      1.50447904532875      1.22013572212788
  H   -0.15960444509514     -0.25457667875573      1.38323584799961
  H   1.05307591997223      0.62829288349382      0.40868189084830
  C   6.96388883511673      1.79392647403681     10.34830858372999
  H   6.71936851776779      0.83912928974835     10.81063272136009
  H   7.03154059861290      2.55483246789367     11.12296342283923
  H   7.91869128765450      1.73247714723357      9.82897012381107
