44
Coordinates from ORCA-job 624optt
  C   2.15002466598176     -0.66186783399438      2.39404804791959
  C   3.06508360207443     -1.71514711150409      2.39994990321745
  C   2.15748588214401      0.32032708891459      3.37940561845871
  C   4.01406078369748     -1.78797288950559      3.38862196839048
  C   4.04874261533282     -0.82334807066594      4.41585776342599
  C   3.09457788958958      0.23011398132155      4.42637339483121
  C   1.18110353784461      1.43143581178338      3.21434927493724
  C   3.07210220046846      1.16222927137117      5.58358614504954
  C   5.03682101945010     -0.92178810611126      5.42502500457167
  C   5.11736896168013     -0.00085533641848      6.48526234177315
  C   4.16105931873641      1.03248039916936      6.58275402390964
  O   2.19070529706066      1.98739920693270      5.74661647694188
  C   4.21953504186213      1.93855197283661      7.63440573021611
  C   6.12063394375872     -0.08290642531000      7.47637227912362
  C   5.21219882571929      1.85839995194025      8.60337892110668
  C   6.16566057101540      0.82445985789836      8.50314584694228
  H   3.47675551197090      2.72545559680620      7.66346630626489
  C   5.26809367968291      2.83041200335023      9.71516441949373
  H   6.85045397257079     -0.88149645110240      7.41972107034946
  H   6.92794640312713      0.73244498322122      9.26636269276810
  H   3.03394416470909     -2.45988127777708      1.61538951239664
  H   4.74517007755749     -2.58694267046267      3.39742354590518
  H   5.75485368917718     -1.73128533658021      5.37083245581142
  H   1.42523756875254     -0.58192266404987      1.59383654423582
  C   -0.18146215840951      1.15780880068260      3.16659156687134
  C   1.61705778156969      2.73757367466112      3.00339811567191
  C   -1.09770343314180      2.17575240018000      2.93257149703972
  C   0.70619432184144      3.75005220541414      2.75790429622166
  C   -0.65620212784384      3.47304533960676      2.72559065732995
  H   -2.15633003595840      1.95135745366343      2.91158519390425
  H   -1.36769286566194      4.26693263256466      2.53941850841347
  H   -0.52594124904931      0.14378888879176      3.33019270124930
  H   2.67719102116006      2.95557282617653      3.04143429127080
  H   1.05775246817083      4.76044655880650      2.59403749896149
  C   6.49295769463901      3.26909119246965     10.22185381879195
  C   4.09469948985225      3.33393211361392     10.28056208505882
  C   4.14526285958802      4.24710678367441     11.32195399614425
  C   6.54351835432758      4.18505602175114     11.26138170087597
  C   5.36976939310851      4.67695817213253     11.81605650190423
  H   3.22510882645198      4.61969251755952     11.75294428848881
  H   5.40884153757339      5.39112462689217     12.62802906714099
  H   3.13583923131673      2.98876503491338      9.91494844756314
  H   7.41403059305096      2.91080548352614      9.77924908615208
  H   7.50229907345017      4.52220132085596     11.63345739290512
