32
Coordinates from ORCA-job 637optt
  C   2.69421567842671     -1.41532235089190      2.00113925636291
  C   3.64693896028669     -2.42661017110156      2.08896831256535
  C   2.61103165587514     -0.40332401823921      2.96237594502038
  C   4.53783575768571     -2.46183431017340      3.13410577561335
  C   4.48891660616164     -1.46493749589256      4.12569536070023
  C   3.52491018011473     -0.42513038963898      4.04093836049289
  S   1.40142077717792      0.86709231751263      2.84328546854360
  C   3.50355710855792      0.61255440411412      5.08582089463142
  C   5.40424019806542     -1.51553052505898      5.20301650981381
  C   5.40685971983813     -0.55342534414096      6.23527134615750
  C   4.47452463037947      0.49997187039655      6.19094372690045
  O   2.71136300002602      1.54422059389446      5.04922933647070
  C   4.47184078008043      1.45351870664876      7.21064949143799
  C   6.32320268606648     -0.62886675597673      7.30778718920837
  C   5.36633553094004      1.37055137243431      8.25138756599276
  C   6.30681431164491      0.31900808964801      8.30817730253782
  H   3.74823704916169      2.25635589364304      7.15965059746532
  H   5.35595069624729      2.11317467464306      9.03971736511843
  H   7.02974295218455     -1.44759850822135      7.31919854332424
  S   7.38651107152930      0.33233768468879      9.69151426283781
  H   3.67729001094214     -3.18890228329445      1.32108671175271
  H   5.27917635452976     -3.24686703479817      3.20961921413127
  H   6.12259216830981     -2.32595647464865      5.23222392959582
  H   2.01532062553348     -1.42978271137491      1.16405215649407
  C   0.50247094247744      0.39297922858191      1.35488847117481
  H   -0.27196678916491      1.15173388933066      1.25570997539049
  H   0.02533525795393     -0.58088713172096      1.45459598935624
  H   1.13078751493746      0.41962201298697      0.46583199273361
  C   8.39601308823401     -1.12800146145209      9.42263564158048
  H   9.08587602501729     -1.16983682531804     10.26278452397459
  H   8.96641673714217     -1.04812397305430      8.49860300383132
  H   7.78755871363704     -2.03096297352603      9.41715577878908
