27
Coordinates from ORCA-job 638optt
  C   1.36969630129095      0.20740998726802      2.01796571242360
  C   1.40567651340218      0.10932723688659      0.61964696338222
  C   0.19813747535176      0.45964750951890      2.69578967161341
  C   -1.00799141082771      0.61688080504840      1.93652652317453
  C   -0.96134177355814      0.51280656892119      0.51305082386709
  C   0.25469524361415      0.26054255478539     -0.12263383128709
  H   2.34735839544470     -0.08914228509796      0.12444865678143
  H   0.28130427178612      0.18357920176693     -1.20258679598145
  H   2.29138339497420      0.07730358881932      2.56786892806557
  C   0.17491991279323      0.61434790682079      4.20203238152682
  C   -2.24986643239745      0.86724423038589      2.53503982361387
  C   -2.17070196329862      0.66832930798632     -0.25635050852294
  C   -3.46455096568400      1.02605763153878      1.77358649979957
  C   -3.35880995802190      0.91227681801639      0.32168594407126
  O   -4.54342584409227      1.24752219178091      2.33702133764664
  H   -2.08910568444221      0.58134352185054     -1.33393776053432
  H   -4.27023281806346      1.03112543354417     -0.24901456625582
  H   -2.36312595893260      0.95257668014430      3.60657535078432
  C   0.09336573640682      2.10034530513346      4.57721883214970
  H   0.99693147527128      2.61454157508038      4.24345886056221
  H   0.01491503956192      2.21563758326028      5.65919482549259
  H   -0.76203541144721      2.59195483776322      4.11462137090165
  C   1.36361042825045     -0.03276814024273      4.90711954703263
  H   -0.72589805869131      0.11778666379556      4.57124403151722
  H   1.20983086980784      0.00077726385027      5.98590864275792
  H   2.29193054757291      0.50104765755673      4.69568249217175
  H   1.49009067392842     -1.07490163618209      4.61181624324552
