20
Coordinates from ORCA-job 639optt
  C   1.27181928561981      0.00812134074753      1.91930695208977
  C   1.16793321801423     -0.25898658280711      0.53559343696164
  C   0.16984471165611      0.52795901961602      2.59321300939926
  C   -1.01431370806139      0.77927360663656      1.92070156264126
  C   -1.12692414236179      0.51403793673596      0.53495552721835
  C   0.00100405711034     -0.01255730346525     -0.13326304136765
  H   2.02675417474329     -0.65864932221188      0.00975579159097
  H   -0.06812510729430     -0.22216954003794     -1.19408822689036
  N   2.46317457814497     -0.20403000617007      2.57054257533148
  H   0.21596388537726      0.74593106505003      3.65354553790048
  C   -2.17407542902727      1.32643058411260      2.66150886837008
  C   -2.34154322196803      0.77656480512097     -0.13296314828530
  C   -3.37763442630523      1.56608136903565      1.89567432991547
  C   -3.44362631284670      1.29604295538023      0.55073392781229
  H   -4.22300103786038      1.96745510263904      2.43874950120131
  H   -2.41100731569320      0.56860938557353     -1.19361335731854
  H   -4.36047972010335      1.48621238565699      0.00749539163850
  O   -2.11058387007269      1.56160464640420      3.86883516854806
  H   3.13122463739385     -0.82144873873377      2.14168588262697
  H   2.44567574353450     -0.23228270928329      3.57603031061594
