28
Coordinates from ORCA-job 652optt
  C   2.34984656103511     -1.34693924425384      1.83190334509140
  C   3.20998901106052     -2.43453646132746      1.90227259439979
  C   2.36563061268414     -0.33278437495273      2.80312233802722
  C   4.11422877961693     -2.52831473948274      2.96261622795996
  C   4.15521545047307     -1.53542900830044      3.94536092441086
  C   3.28017418178842     -0.41403792187598      3.88587583625875
  N   1.51166993276024      0.70664958885408      2.68822991724777
  C   3.33183390930522      0.61257288511316      4.91112070320199
  C   5.08182149793033     -1.65466179166461      5.00800935547804
  C   5.17397956520951     -0.68658158273245      6.03058043191902
  C   4.32060797931593      0.43791178282099      6.00234013156782
  O   2.60171005153041      1.60937974622997      4.91422952756260
  C   4.40486145319411      1.39716206483196      7.00751170729668
  C   6.10074010414545     -0.81123052678976      7.08785028970512
  C   5.31937217828067      1.25783710211609      8.03518174691120
  C   6.17030805526646      0.14606510198099      8.07221615119141
  H   3.73717047098911      2.24690034381151      6.95786338089072
  H   5.37912556145740      2.00776992059788      8.81283624077519
  H   6.75611131307054     -1.67350748718388      7.11108905166237
  H   6.88451320624407      0.04120919120254      8.87864048935027
  N   3.14047576987277     -3.44382859743373      0.95905766558375
  H   4.78472303985566     -3.37630662318621      3.02973026927994
  H   5.73803973272990     -2.51605077744990      5.03406307399227
  H   1.64311733278214     -1.27528040283059      1.01282029872246
  H   0.85991223177255      0.73911643753360      1.92692957132496
  H   1.53245990430645      1.42396396742818      3.40023541727890
  H   2.72311741403507     -3.20401556244702      0.07493579255577
  H   3.95620469928773     -4.02707303060958      0.87107752035364
