38
Coordinates from ORCA-job 655optt
  C   -0.70861310874454      0.32178110290748      0.10806191523712
  C   -0.77105713091507     -1.04238193618958      0.05896496861758
  C   0.52052199593426      1.01123258743071      0.13801253940402
  C   1.72265940326597      0.28878910901584      0.11779487076571
  C   1.74251219318023     -1.08442828052611      0.09275539848920
  C   0.46993774226270     -1.82864325122822      0.05912624299996
  H   -1.64320624455799      0.86374182122394      0.10304760372393
  C   -2.10165904494167     -1.69131015658399     -0.00351785548138
  C   0.56219815467273      2.48473228429677      0.19746514929938
  H   2.64881733496841      0.84518039922401      0.15968169933730
  C   3.02027731568307     -1.81217226629184      0.09552118706253
  O   0.45790769037275     -3.06004971101741      0.02687237211915
  N   -3.13003620140678     -0.95778525369795      0.44473599193860
  C   -2.32170845219246     -2.96363332801317     -0.52599484398775
  C   -4.33713115845782     -1.49379002594617      0.38029401856848
  C   -3.63170879338277     -3.41526635557664     -0.54531360068504
  N   -4.65203831003895     -2.69595201125596     -0.09189997566185
  H   -1.51228981738940     -3.57006644082706     -0.89556508883758
  H   -3.86824757623090     -4.39680782049236     -0.94167095708520
  C   3.19768307682542     -2.98799305299734      0.83175376934920
  C   4.10332727013289     -1.30525859733183     -0.63067597238627
  C   5.32718801296729     -1.95295018148456     -0.62414105976130
  C   4.42807693896098     -3.62492818035315      0.84746774735971
  C   5.49402182736389     -3.11471813835927      0.11829381558896
  H   4.55418573065238     -4.52720770874015      1.43136911519943
  H   2.37285123309096     -3.39192402853250      1.39917580382477
  H   3.97310427562261     -0.41008871116180     -1.22591648287111
  H   6.14951900191388     -1.55395443886056     -1.20328961815270
  C   -0.55211597431735      3.25794416347913      0.52090330904561
  N   1.73688277278150      3.07099864686445     -0.06427916087144
  C   1.78212485021869      4.39220833599843     -0.01696200023837
  C   -0.38384316896614      4.63186290313178      0.54040924846769
  N   0.77785240362586      5.21603178988796      0.26871050208896
  H   -1.21256426988471      5.28714315449725      0.78547652361477
  H   2.73983828101730      4.85202889219728     -0.23517097999713
  H   -5.15640334078434     -0.88869707944645      0.75370345246448
  H   6.45049359672316     -3.62097392743092      0.12705217415750
  H   -1.50828851002611      2.82102569218998      0.76562817729309
