19
Coordinates from ORCA-job 656optt
  C   1.29265851174058     -0.04336043194317      1.95240762072430
  C   1.20759470547871     -0.30150248985071      0.57902013235747
  C   0.20882643851393      0.47764172949905      2.62757325642717
  C   -0.97781486781819      0.74958959060665      1.94292619848572
  C   -1.07394706745924      0.49336851565955      0.55949238560160
  C   0.04303811954490     -0.03734646973962     -0.10705040714599
  H   2.06122824353088     -0.71076089767487      0.05480565281952
  H   -0.02432048720062     -0.23669794994995     -1.16978744763594
  H   2.21156879497388     -0.25423424604155      2.48327943113698
  H   0.24928229862495      0.68574235936504      3.68879935966151
  C   -2.12892793529609      1.29982537381255      2.65169295295114
  C   -2.29446710917260      0.77410869235935     -0.13712134787304
  C   -3.32716107314538      1.55329357376319      1.86849325991158
  C   -3.39312762584860      1.29046882926825      0.49983033118270
  O   -4.36016130460198      2.05108786585312      2.53105292239541
  H   -2.33593405502846      0.56673293183508     -1.19909034004749
  H   -4.31142456863983      1.49999196134092     -0.03191549824576
  O   -2.15678299647682      1.56267085858977      3.86093623841589
  H   -4.05849802171999      2.14054020324733      3.45705529887721
