28
Coordinates from ORCA-job 658optt
  C   2.31876051035602     -1.26404114159298      1.85329553657173
  C   3.19587009693161     -2.34562379073712      1.86632073132206
  C   2.34512461319046     -0.31811095396693      2.86420057910705
  C   4.09499861383545     -2.50424276314615      2.92583309206353
  C   4.17007478621434     -1.51669845371783      3.94142722594758
  C   3.26345030114901     -0.42054336116390      3.89500807546027
  H   1.66811045636243      0.52514991283292      2.86072820335740
  C   3.28427638481784      0.62347311242855      4.93761548454330
  C   5.11067840404436     -1.59613433219823      4.98643109038188
  C   5.17396365156341     -0.62368244177259      6.01654160771519
  C   4.28455184398397      0.47202277031618      6.01724323303787
  O   2.51517938620803      1.57107216014796      4.91609460685788
  C   4.34791687425072      1.42211468319069      7.03350790662385
  C   6.12105443775436     -0.72426772293688      7.05711871216287
  C   5.28001441021907      1.30304907562821      8.04648611424091
  C   6.17050122883090      0.22215368835841      8.05370820031400
  H   3.64935487873586      2.24801199982962      7.00050272632125
  H   5.32448282644254      2.04367142125878      8.83395121340518
  H   6.80974130890105     -1.56071677394329      7.06128550363994
  H   6.90128090908489      0.13209557114952      8.84697692688567
  N   3.17011659821992     -3.33773758799276      0.87626749069314
  N   4.92156889829090     -3.62254636379822      2.90413891527326
  H   5.83861032678879     -2.39643329003219      5.02069188682368
  H   1.61732461855070     -1.16773096935169      1.03286361240743
  H   2.56462485290852     -3.11256091161247      0.10092456823245
  H   4.09207822156708     -3.58989291723848      0.54107506039919
  H   4.47608851140457     -4.43152160851011      2.49014285732426
  H   5.35120204939300     -3.85754901142898      3.78421883888695
