22
Coordinates from ORCA-job 660optt
  C   1.27613044995872     -0.04712995425277      1.89936418651298
  C   1.16769035993267     -0.30778821585500      0.52196486109579
  C   0.18338164513565      0.48233411210109      2.58084589536386
  C   -1.00122293085692      0.75257703675648      1.91612440615158
  C   -1.11880098215423      0.49402396438637      0.53082186061434
  C   -0.00548115025290     -0.04129568303759     -0.14276598039442
  H   2.00270605217037     -0.71892185344098     -0.02648428071686
  H   -0.08028406789280     -0.24510149599935     -1.20435524913073
  S   2.71859006762249     -0.34643938513203      2.84446150876740
  H   0.23564058069871      0.69433502230586      3.64220605643343
  C   -2.15115799811844      1.31560707094041      2.66165646377591
  C   -2.33715344999257      0.77625634638770     -0.13570872307213
  C   -3.35515829579997      1.57282588368849      1.89860530547376
  C   -3.42807028898174      1.30684987680764      0.55152870735576
  H   -4.19346496757763      1.98455458402341      2.44469543197164
  H   -2.41088430132484      0.57245541695676     -1.19666581896124
  H   -4.34410262709106      1.51101693635648      0.01203976298707
  O   -2.08416816290347      1.55102533142952      3.86631280662105
  C   3.87619769044402     -1.00067642360917      1.63665827978879
  H   3.51742823303552     -1.93489216728714      1.20820602481099
  H   4.79393981538202     -1.19434111936539      2.18798367901061
  H   4.08212432856640     -0.27521528416081      0.85150481554039
