28
Coordinates from ORCA-job 663optt
  C   2.33281720696473     -1.30035507913956      1.78287861402435
  C   3.17806556354828     -2.42923296425922      1.88159087901995
  C   2.40717540495860     -0.31772988610288      2.76297062981625
  C   4.05414366847930     -2.55390927230149      2.92312846720709
  C   4.14725680177965     -1.56128366176980      3.92776962766686
  C   3.29450865589946     -0.43700915600179      3.82243118987114
  H   1.77218648100312      0.55925516471556      2.72326471772741
  C   3.32584875945689      0.61857232750193      4.85579829947751
  C   5.04661792460563     -1.67752040772890      5.00297165681237
  C   5.13881885769818     -0.69137502485447      6.00511109291728
  C   4.27999440297052      0.43891558701543      5.96829522824916
  O   2.58956861417848      1.59266195886699      4.78938513403225
  C   4.31012276106441      1.39062222347052      6.98136042400302
  C   6.06817266298765     -0.80073253172299      7.08175701294527
  C   5.19084489698017      1.24190608139831      8.03643615507483
  C   6.06620484316556      0.15831454576176      8.08086478107715
  H   3.63350166638429      2.23138439014732      6.91780470743621
  H   5.21613320484023      1.97604943069153      8.83109614907492
  N   6.92928719485375     -1.88759979492501      7.15349727291107
  H   6.76768748706399      0.06360287177751      8.90160545486349
  H   3.12495462085173     -3.19551758759726      1.11725569040960
  H   4.69490206754376     -3.42541320169915      2.98732580306504
  H   5.64677525640618     -2.57637474886092      5.06255166250055
  N   1.48787353917728     -1.16775353918280      0.70159812480146
  H   1.23734324558926     -2.00735345486840      0.20667273557723
  H   0.73815188391299     -0.50181834978036      0.78866792477289
  H   7.26925203236812     -2.24000376468526      6.27286752142098
  H   7.67168029526767     -1.78820215586659      7.82783304324459
