20
Coordinates from ORCA-job 668optt
  C   1.29144422805029     -0.05358656846908      1.99716640472562
  C   1.22852837948474     -0.26561684112826      0.61563333694260
  C   0.19593203987690      0.45073860832740      2.66296191026972
  C   -0.98282879091953      0.74641371933560      1.97476294896360
  C   -1.05989233168709      0.51923638317486      0.58567942393569
  C   0.07504589316627      0.01732399898520     -0.07901967193199
  H   2.09211978651332     -0.64871369240078      0.08783353019002
  H   0.06680215818170     -0.13744356323183     -1.15029948463085
  H   2.20152713239662     -0.28008453982288      2.53675615381564
  H   0.21305125303013      0.63617520794547      3.72891820852489
  C   -2.12750187271467      1.30421649628993      2.72626813859689
  C   -2.29258146964026      0.81154564316826     -0.10060153188373
  C   -3.30946404758559      1.59817983308841      1.95522274769352
  C   -3.37359548377365      1.35534208254177      0.60975081176655
  H   -4.15262206389000      2.01229428332209      2.49155912600142
  N   -2.40687495548152      0.59611933793752     -1.44202710718912
  H   -4.28402747644153      1.57753329207778      0.06361981086625
  O   -2.06575341231108      1.50551597998007      3.94047536544241
  H   -1.76836807343198     -0.02643304102973     -1.90416174603262
  H   -3.32136089282307      0.66116337990818     -1.85564837606654
