26
Coordinates from ORCA-job 66optt
  C   2.04529230868463      2.15874424419051      0.89795769921094
  C   2.90157414194284      1.10504688302737      1.18234086142137
  C   0.69924138261579      1.89015860447705      0.29512469553333
  C   0.35537204695354      0.49811725694289      0.08974915537235
  C   1.27808712188038     -0.53126600334329      0.38410153004366
  C   2.54534990071478     -0.20288835407364      0.92710164413056
  C   -0.96471459332902      0.15882357129490     -0.41353997078481
  C   -1.23363523202515     -1.28696075084596     -0.56812498331945
  C   -0.33098324538143     -2.24759088690937     -0.28333725249892
  C   0.96573348109692     -1.90538004809366      0.19631800098574
  C   2.50868383893805      3.49244557540995      1.20433355492598
  H   3.87266163682658      1.31742936534306      1.61380084598752
  O   -0.03185917774667      2.83007413566431      0.01451708824573
  H   3.25092572474446     -0.98061883358884      1.17368119561235
  O   -1.85773254004109      0.93797294247582     -0.71074020985700
  H   -2.21736596352053     -1.53012683001203     -0.95226268551051
  H   -0.57196260938400     -3.28682213438732     -0.45947483965168
  C   1.92001817534623     -2.97908198210640      0.45245811137338
  C   1.85439026788999      4.64758117127617      1.01926127016397
  H   3.50472094273590      3.53136044398670      1.63629170661760
  H   0.86336034920572      4.67532429961442      0.59425616948940
  H   2.33413261657593      5.57596380615603      1.30438877897300
  C   1.58569661106675     -4.24903950293804      0.68973208392838
  H   2.97228426616814     -2.73313243444422      0.45049031455799
  H   0.55868733701413     -4.58519275935642      0.73990830628249
  H   2.35054121102713     -4.99194177975997      0.87033692876660
