19
Coordinates from ORCA-job 679optt
  C   1.26188373587860     -0.03699006808463      1.93077998602732
  C   1.17603925472707     -0.29542769875880      0.55348024487281
  C   0.17814781075386      0.48479419730369      2.61583957682135
  C   -1.00064347463254      0.75475248176724      1.93591709749362
  C   -1.10687257134697      0.50178016104511      0.54913437018847
  C   0.01164497075487     -0.02990467551867     -0.12214216726529
  H   2.03310218586328     -0.70492556483095      0.03073652994511
  H   -0.05502847223501     -0.22939764728521     -1.18475648877993
  O   2.39246982354777     -0.28504833209177      2.63239334225649
  H   0.24244796467877      0.68436794553361      3.67708546091268
  C   -2.15858185305476      1.31302213203752      2.67170022797147
  C   -2.32056696471265      0.78465439835176     -0.12659862752387
  C   -3.35595865489779      1.57117232222241      1.90065244604643
  C   -3.41837608988115      1.31049226384431      0.55168475097145
  H   -4.19888942183418      1.97948701892281      2.44217949870386
  H   -2.38432551374103      0.58440851101734     -1.18893702094905
  H   -4.33001582150161      1.51503706951726      0.00514435049604
  O   -2.10116647270210      1.54393014477462      3.87845216202740
  H   3.07437956433557     -0.64228465976763      2.05475425978360
