32
Coordinates from ORCA-job 682optt
  C   2.58257290220499     -1.15722828333162      1.49249068327999
  C   3.27681564897747     -2.34718526255717      1.65667966948715
  C   2.61285566347855     -0.13893139835758      2.44442336521706
  C   3.99728540213007     -2.58722770453307      2.81053781708601
  C   4.06860040352564     -1.56637832020945      3.80700421552639
  C   3.40640699206471     -0.31412576854115      3.59251507471091
  C   3.65769543346810      0.78971175972615      4.55190777650286
  C   4.79936706446036     -1.78967986160186      4.98906998010174
  C   4.95264382861985     -0.80464423867446      5.98938706224304
  C   4.40410442990350      0.47491359052629      5.78887513803110
  O   3.30004348216706      1.93700958516897      4.33874451113544
  C   4.56946774441843      1.46308190233172      6.75794505310421
  C   5.66381554925295     -1.06525797448467      7.17987133473548
  C   5.26308828611841      1.18959099449178      7.92037161837500
  C   5.81237624800011     -0.08278502154143      8.12945197304934
  H   4.14280416487271      2.43953799493028      6.57165797340210
  H   5.38530301624127      1.95822477498223      8.67192383548323
  H   6.08984049307376     -2.04942235945282      7.33256067124509
  H   6.35717096978608     -0.29047300993524      9.04122499222578
  H   3.20894413876572     -3.09112290945578      0.87721932691062
  S   4.84082926492149     -4.10086217147104      3.10235490535188
  H   5.26876174729230     -2.75002741838951      5.15514835328839
  S   1.62620203665326      1.25666792286931      2.00467984300429
  H   1.97243577119640     -1.01919548041541      0.60940123517918
  C   0.67040627261909      1.63696070514582      3.48705480483777
  H   -0.31338821878885      1.94659137494393      3.13912729806698
  H   1.14211479229927      2.42357717735248      4.06590152817430
  H   0.56639330064253      0.73957928079946      4.09425699095037
  C   4.44517902570787     -5.07015201293017      1.64426018476551
  H   4.93672038159097     -6.02869898519163      1.79715847487595
  H   4.84065036223577     -4.60979131260877      0.74068485959494
  H   3.37248340210000     -5.23117756958552      1.55401945005774
