24
Coordinates from ORCA-job 687optt
  C   2.18209905307526     -1.15386130862280      1.72231659702683
  C   3.02433908268492     -2.25677280322845      1.70923032877058
  C   2.25602561741579     -0.19895965136719      2.72429287840093
  C   3.94493582505363     -2.40369179149500      2.71853434482116
  C   4.03896931408573     -1.45526838737857      3.75747801540613
  C   3.17833422009925     -0.32375319328344      3.76036478051855
  F   1.27704570472307     -0.99733825871846      0.75973449519445
  F   1.41579526654846      0.81755897467789      2.64853587142507
  C   3.26700765524318      0.68437434890847      4.84431606974778
  C   4.97943148611705     -1.63119751757601      4.79589835314751
  C   5.09850308662264     -0.71476593928838      5.86349011211048
  C   4.26751088958503      0.42574396177447      5.90499953786235
  O   2.56110237583846      1.67467835454193      4.87561107349956
  C   4.38064011873185      1.33165895763612      6.95693777330642
  C   6.03392374608257     -0.91158178584018      6.90250858020001
  C   5.30098436416858      1.12019542883521      7.96477942209329
  C   6.13030204362772     -0.00885691876950      7.93409160939383
  H   3.72923074643168      2.19550161044045      6.95780857876850
  H   5.38299929843900      1.82633747259465      8.78028604055464
  H   6.67290395877670     -1.78577511068716      6.87445825751265
  H   6.84922678676719     -0.16976039858054      8.72679257450182
  H   2.93193842153882     -2.97359051315287      0.90475945817800
  H   4.60896683759435     -3.25801947643851      2.72699984489172
  H   5.62390410074899     -2.50131605498215      4.77211540266762
