20
Coordinates from ORCA-job 689optt
  C   1.35258857602200     -0.07799106993370      1.85454366976990
  C   1.28249788474523     -0.35232334686536      0.46608010150289
  C   0.26970701928825      0.44057774222879      2.49517591795275
  C   -0.93991768872073      0.71458914959508      1.78987966675413
  C   -1.00639036145298      0.43501029776605      0.38253510209132
  C   0.13902399683163     -0.10324174723413     -0.24430424832655
  H   2.14724146732700     -0.76514167684464     -0.03747853299700
  H   0.09852293030078     -0.31753277899325     -1.30528964058779
  H   2.26588709523120     -0.28258877427874      2.39649525647326
  H   0.30358275621444      0.65696318207358      3.55610277877096
  C   -2.05052270727108      1.24360949942181      2.42871388968726
  C   -2.19258883162482      0.69714269001423     -0.34209881726736
  C   -3.26700030382923      1.52075867397192      1.72865614795371
  C   -3.29792480460001      1.22008329388960      0.27453512579874
  O   -4.27515988832044      1.98935128888526      2.27361516927623
  H   -2.21486946018226      0.47705168498423     -1.40331181752917
  N   -4.46775711147898      1.50851416335613     -0.32713599437557
  H   -2.03488699774363      1.46564359554843      3.48860873915385
  H   -4.62698177990851      1.32611936505610     -1.29992500684826
  H   -5.20786179082784      1.87365476735860      0.25112249274670
