30
Coordinates from ORCA-job 693optt
  C   -1.47090344895314      1.23327034577047     -0.12628057479719
  C   -1.70556218892851     -0.11787376788583     -0.15223837503106
  C   -0.09276787741864      1.70901432566546      0.00973350794459
  C   0.98849896639835      0.72776448347558      0.12110347442073
  C   0.67556903180091     -0.60756614474649      0.10354562471047
  C   -0.65182307544614     -1.03340618033368     -0.03513705213495
  H   -2.71445083682423     -0.49336727122380     -0.26326980296390
  H   -0.86800096295082     -2.09395227080706     -0.05241181868736
  C   -2.55278015453550      2.27521286285036     -0.19418580880911
  O   0.15500199671456      2.92452169769042      0.03041684405974
  C   2.39138262827429      1.26064288109462      0.21240995075437
  H   1.45620647479251     -1.35135071774290      0.19577186084620
  C   -2.78794934071367      2.86661996339552      1.20334815676395
  H   -3.15046681510887      2.09240953213886      1.88327803876052
  H   -3.53915606942599      3.65633100681522      1.15394260757426
  H   -1.86820905426110      3.28742416147909      1.60593111827342
  C   -3.86110978214772      1.76000311156499     -0.78226307394990
  H   -2.16749324286049      3.08101264501931     -0.82388466201483
  H   -4.55954360724784      2.58762187516724     -0.90863325002369
  H   -4.33584146941784      1.03322688534971     -0.11927702550474
  H   -3.71044340145916      1.28924832451146     -1.75482961148571
  C   3.39082155322387      0.25727716044304      0.77574167314827
  H   3.06316699391286     -0.14530590514231      1.73528536449600
  H   4.35678565894420      0.74154877651300      0.92100371028769
  H   3.54636800502882     -0.57751354929885      0.08865727297919
  C   2.84579068942101      1.75456235050146     -1.16870780930987
  H   2.34921653881974      2.13345203349853      0.86866644492239
  H   3.84647362060852      2.18428165107706     -1.10227589238313
  H   2.16679061395080      2.51467787596954     -1.55117350098094
  H   2.87805855580918      0.92133185718995     -1.87424739186538
