28
Coordinates from ORCA-job 694optt
  C   2.32619390066168     -1.32202201366924      1.85196169236871
  C   3.22485841748811     -2.42380989818734      1.89589197151115
  C   2.39699164861819     -0.34646374789971      2.82775752146858
  C   4.11449534828443     -2.53003589530174      2.93481655574311
  C   4.17758681343037     -1.55303661124858      3.95554991184359
  C   3.30772641288886     -0.43956817076947      3.87456160907484
  H   1.72848228416249      0.50616341769923      2.80551894269755
  C   3.33834709310673      0.61912685902201      4.89847002799246
  C   5.08750682784677     -1.65937146447266      5.02130816832751
  C   5.16401450513874     -0.67453904602216      6.03673046339536
  C   4.31165265972763      0.45267246244268      5.99734951072683
  O   2.59440035473839      1.58864178615638      4.84126960125048
  C   4.38726141987370      1.41867146398259      6.99932224354982
  C   6.08069628283154     -0.78977588746895      7.10312712874771
  C   5.29157607301906      1.28586009355356      8.03443351152049
  C   6.14194709543353      0.17314282211414      8.08256356084918
  H   3.71922080360686      2.26786284086595      6.93729922882984
  H   5.34562405011204      2.03955573224180      8.80881336420792
  H   6.73698280602279     -1.65106206341876      7.13848466205524
  H   6.85008692837915      0.07189144735215      8.89486531434566
  N   3.10902993380768     -3.38601518345129      0.88772569164278
  H   4.79617288447013     -3.37285769961186      2.96995090694839
  H   5.74999613923768     -2.51558118619652      5.07051111058244
  N   1.44359062232472     -1.25087555201425      0.78066065018997
  H   1.04942824502299     -2.14246267960544      0.51043329175087
  H   0.73597237589817     -0.53787884774312      0.87135743145001
  H   3.00465660247069     -2.98424730636055     -0.03573598226398
  H   3.84656147139678     -4.07463567198879      0.89766190919342
