32
Coordinates from ORCA-job 698optt
  C   2.75026678498712     -1.35887679052858      1.56254946202934
  C   3.50706413332524     -2.50895233925232      1.76121209702484
  C   2.75243109250169     -0.30904849538129      2.48409109409321
  C   4.24176407150831     -2.65382577375227      2.91402388073989
  C   4.27804831321793     -1.61477215256686      3.86263103362325
  C   3.57164908881981     -0.40283256668761      3.62611922036703
  C   3.82754927400432      0.73894055877873      4.53569657614578
  C   5.02753868220433     -1.77943492829669      5.04602571443447
  C   5.11232212913556     -0.78094239780838      6.03968511684180
  C   4.50753785857428      0.48020854267760      5.81935949990462
  O   3.52936698998102      1.88168615655367      4.22406289958056
  C   4.58357044790662      1.47756021697458      6.81831305994605
  C   5.80216950872837     -1.03633481903425      7.23909431151933
  C   5.26412774406127      1.17919851884866      8.00117946109980
  C   5.86846289926254     -0.06002140103807      8.20241832117735
  S   3.82322585714284      3.04825684647443      6.58221424195855
  H   5.34477119198430      1.91625290363260      8.78385634244246
  H   6.26776084863749     -2.00216992045330      7.38732600288233
  H   6.39432533282260     -0.24404598095957      9.13044092502708
  H   3.48011931090420     -3.30098292185948      1.02438159354048
  H   4.80001928749230     -3.56088182609438      3.10854503209300
  H   5.54126627975693     -2.71908787099922      5.20835761487347
  S   1.67960862443358      1.01678928319022      2.03839266166160
  H   2.11250655067342     -1.27736915915773      0.69196353157164
  C   0.86093150046853      1.49893008200199      3.57252179070898
  H   -0.16434826051384      1.74214914219647      3.29999133383241
  H   1.35266900202489      2.34970965418969      4.03225947841657
  H   0.85545630304001      0.65782941365019      4.26375528580300
  C   3.95503131478796      3.77726498642360      8.22544411330439
  H   3.49475041437997      3.15085920256788      8.98814745446753
  H   3.39876933520457      4.71043812200977      8.15372453694066
  H   4.98417808854168      4.00943571369993      8.49498631194827
