21
Coordinates from ORCA-job 69optt
  C   1.77570284690292      2.08502780900196      0.78381574743885
  C   2.62861738905841      1.04789722200728      1.08074340340459
  C   0.39955307389368      1.84995590986430      0.22947984846131
  C   0.01991076371915      0.47401473696963      0.02740810293657
  C   0.93506605308792     -0.54940580215381      0.34798374630850
  C   2.21736717700282     -0.26243111810390      0.86616827273933
  C   -1.28176956391675      0.11205483286936     -0.49847411468080
  C   -1.52454706947462     -1.34273895264351     -0.65559262130061
  C   -0.61558890426071     -2.30233617681355     -0.33710165101205
  C   0.63336878106021     -1.90511621973582      0.17307096247476
  C   2.15240336244799      3.50043014743436      0.98866391385714
  H   3.61488931526852      1.25173824292582      1.47915369959624
  O   -0.28576217946306      2.83539408605967     -0.00505317291536
  H   2.88085262767437     -1.08797320299698      1.09525281665156
  O   -2.17761982676767      0.88108701176536     -0.81726828355981
  H   -2.50101140616458     -1.59708901372779     -1.05162565094102
  H   -0.84011273529480     -3.35249165911621     -0.46977617229823
  H   1.37776250898440     -2.64650441085144      0.43739083995665
  H   3.15848922754072      3.60602306474598      1.38750350408542
  H   1.42546452046865      3.97317253012128      1.65371615309806
  H   2.05593403823244      4.03917096237801      0.04297065569890
