32
Coordinates from ORCA-job 700optt
  C   2.07396641980122     -0.69112143590216      1.61684978695660
  C   2.79182138885563     -1.89528401454002      1.54564587324171
  C   2.30614855967120      0.19841079319897      2.64309215632240
  C   3.73899730140364     -2.16968846000989      2.51738766608158
  C   4.03304828428633     -1.25917373088710      3.55223479619514
  C   3.26700308334587     -0.07048802106694      3.61409278450026
  H   1.32534545408390     -0.47365442217862      0.86472871004189
  H   1.74591948877616      1.12002364173936      2.72913060405257
  C   2.50523960799416     -2.83545945606906      0.44954210934231
  C   3.42709971169721      0.89031779145914      4.72124289468505
  C   5.03221286289082     -1.52999796036228      4.55105321465805
  C   5.19200140742791     -0.63164164282835      5.66238245120109
  C   4.41281814456255      0.54221783636269      5.76305633622070
  O   2.77119194490247      1.91654704291867      4.77859558607948
  C   5.90326583764911     -2.70146965563988      4.47093104794030
  C   4.57814457192108      1.41776820792462      6.83428191405735
  C   6.15831837188645     -0.85860697781743      6.66848158189618
  C   5.50884734347804      1.15704046815976      7.81854255229310
  C   6.30433316217855      0.01161657056777      7.72456070355300
  H   3.95767304197639      2.30377755716087      6.86053600210864
  H   5.63221623844395      1.83853419468965      8.64962625489776
  H   6.80887915039605     -1.71883958564300      6.60826590130100
  H   7.05013063014474     -0.19056786337451      8.48252441212277
  C   3.29814915651182     -3.81836365318785      0.03933860687308
  H   1.56406002582324     -2.67182887937547     -0.06644117311325
  H   4.26396488522089     -4.00717361309523      0.49256803526066
  H   3.00736945971221     -4.46327476029572     -0.77850939040255
  H   4.23646603031202     -3.12717263504335      2.50419822480378
  C   6.55606428096760     -3.11709936828465      3.38644841462331
  H   6.05918182699505     -3.24558111255363      5.39721349377891
  H   6.48895378121882     -2.58904664128407      2.44317136323916
  H   7.19994854546473     -3.98559021474223      3.42605708518784
