27
Coordinates from ORCA-job 702optt
  C   3.21361142989452     -0.61661863983274      2.96699075198496
  C   3.96242257762015     -1.78995920210822      2.67528652499946
  C   3.54044042212131      0.19106427897880      4.01486647118619
  C   4.64365503691581     -0.11732246857433      4.84932548936321
  C   5.40459911530165     -1.28582218946168      4.56725257837280
  C   5.03125800085365     -2.10227506482165      3.46658919355041
  H   2.36685749375438     -0.36994005056261      2.33693814139353
  C   3.55732903472463     -2.64691333125544      1.51091695448761
  H   2.96105087866679      1.08138261537022      4.22712520664580
  H   5.61634766195537     -2.99209391454921      3.26128682347407
  C   5.00401995615322      0.69332914400867      5.94422361685480
  C   6.07408480751729      0.37621596987766      6.73847001542553
  C   6.84972775827088     -0.79242864012025      6.46153584861665
  C   6.50119601659555     -1.59722916118680      5.38708582810429
  H   4.43312903141135      1.58529100623540      6.17459886541376
  H   7.08544995109505     -2.48580983119225      5.17413778244386
  C   6.42791955005973      1.24440355077132      7.88911844000229
  C   7.96293258384105     -1.10206776515482      7.29690695772475
  C   7.57969631596409      0.84147820446644      8.67554356432164
  C   8.30420388418270     -0.29068199027871      8.37345744746735
  O   5.78139649486728      2.24916066232431      8.16356358316097
  H   7.83805070446184      1.47664809806002      9.51223258266736
  H   8.54493683880990     -1.98833354927987      7.07808780192063
  H   9.15700439635160     -0.55804800297848      8.98468830708019
  H   3.60103006715761     -2.07870044518660      0.57975782365978
  H   2.53011429617751     -2.99716578853096      1.62857050850995
  H   4.20613569527491     -3.51552349501823      1.41246289116800
