20
Coordinates from ORCA-job 705optt
  C   -0.88067779033427      0.91009507162963     -0.47563598174005
  C   -2.01441784609930      1.45140040797876      0.09540707575565
  C   -0.65120607549468     -0.51217238533627     -0.50865098357150
  C   -1.66276111162745     -1.37806728697449      0.06675912314705
  C   -2.79356348719150     -0.83261889109786      0.61246930282312
  C   -2.98365956833069      0.55018324195228      0.63265485101087
  O   0.37521400811238     -0.99297655282410     -1.01825481706936
  H   -3.89079415461941      0.93789072101493      1.07132193594782
  H   -3.55978233128666     -1.46817527345072      1.03720148802016
  N   -2.22838827097340      2.81171712979451      0.16820628305917
  H   -1.48231878505224     -2.44377085492559      0.03558659369127
  C   -3.55544315373022      3.31542403413703      0.45867823266920
  C   -1.30638698410524      3.68097624610602     -0.52915499689087
  H   -0.29181079734174      3.54029501774985     -0.15300423117122
  H   -1.58845176619901      4.71535329083258     -0.35174658698659
  H   -1.29765740475312      3.49726589096138     -1.61084360332046
  H   -3.87348575433245      3.03594422582414      1.46441707814509
  H   -4.30666173383361      2.95762543237133     -0.25527656770419
  H   -3.53414983329077      4.40104040144126      0.41569987057542
  H   -0.10929715951656      1.51699013281528     -0.92491406639059
