22
Coordinates from ORCA-job 708optt
  C   1.32888191694271     -0.11320759612713      1.71238590087289
  C   1.21722763748598     -0.37296755511360      0.33741172948700
  C   0.25540977076513      0.42017518908017      2.39889715143537
  C   -0.95126050758922      0.70597445820367      1.73481224624271
  C   -1.06454763479202      0.44267387281196      0.33986900197059
  C   0.03368572706892     -0.09411952725582     -0.32463766641173
  H   2.04695265661005     -0.78996658145896     -0.21413539992799
  H   -0.04046775050382     -0.29903652259443     -1.38585683789082
  O   2.44740743303131     -0.35542982332111      2.43582290194426
  H   0.35551394511622      0.61545821818617      3.45894142514924
  C   -2.05736976666833      1.24647764353812      2.41474503340746
  C   -2.30310512207134      0.73587411175411     -0.33907919166810
  C   -3.29910244537148      1.53836566933698      1.74160964787496
  C   -3.36226600581555      1.25132466978007      0.30722879798209
  O   -4.26194538563455      2.00899899999019      2.35754862884220
  H   -2.35495765875901      0.52444135949553     -1.40131233959893
  H   -4.29536031584702      1.47435781933625     -0.19256491834093
  H   -2.00949280094348      1.46001160949228      3.47512544762148
  C   3.56630254561897     -0.90218959600536      1.77172535165873
  H   4.34014793331011     -1.01304885344424      2.52582364707654
  H   3.92278142057135     -0.23544778371673      0.98232046081665
  H   3.33340440747514     -1.88116978196815      1.34491898145630
