32
Coordinates from ORCA-job 709optt
  C   2.22959576993762     -1.11252908466191      1.78123436181324
  C   2.87090300429725     -2.35595764192766      1.91300173574451
  C   2.43107318641559     -0.12556170163337      2.73680051818572
  C   3.70092513675362     -2.59000185553563      2.98505182333216
  C   3.92378935751708     -1.60030574634784      3.96118290240006
  C   3.26477953219955     -0.35431162072957      3.81829465153211
  O   1.40265874837980     -0.79929281591103      0.76013160923327
  H   1.93499741804833      0.83112195109958      2.64112902278139
  C   3.45706467653900      0.72078062281918      4.81732524691744
  C   4.78316242221857     -1.82463953582260      5.06293080448883
  C   4.98666649785934     -0.83955862770736      6.06510148863509
  C   4.34388580874853      0.41514386563542      5.95643337911023
  O   2.90630335947141      1.80413726380794      4.70257623599916
  C   4.54706019156821      1.38418142819615      6.93892150385458
  C   5.82057792695451     -1.08552141122858      7.17671562098068
  C   5.37025571565346      1.12911234740688      8.01646074234914
  C   6.00665758134781     -0.11455615391347      8.13172633396335
  H   4.03960226521075      2.33321773626202      6.82619971963871
  H   5.52228547491016      1.88509921062958      8.77524544280313
  H   6.29412320860573     -2.05356063882180      7.27061309697449
  H   6.64530041028034     -0.31387231156177      8.98261927381792
  H   2.71650976233222     -3.13655073265384      1.18242825317714
  H   4.18311687339964     -3.55191695294823      3.09667194943774
  O   5.42621465868331     -3.01957608967502      5.16612283144435
  C   1.14402491058330     -1.78221266067711     -0.21925455454443
  H   0.45511834968775     -1.32910968586465     -0.92635384118256
  H   0.68023473156405     -2.66747299989409      0.22337276280072
  H   2.06022119191050     -2.07202918251747     -0.74004617752058
  C   6.71309495650003     -3.03464662552181      4.55339238594408
  H   7.12316632460184     -4.02931236879715      4.71000611194939
  H   7.36498778983467     -2.28749081911976      5.01257932297936
  H   6.62809275798588     -2.83140716238501      3.48289544095947
