26
Coordinates from ORCA-job 70optt
  C   -1.61174163470571      0.63658022985223     -0.13585208712691
  C   -1.91236806939877     -0.63167203308981     -0.48789875847355
  C   -0.26885699468814      1.01060046356599      0.16355898485114
  C   0.71690066509567      0.07366704476284      0.17268266615737
  C   0.43950057208608     -1.31325090488878     -0.08932033908875
  C   -0.89666907596231     -1.67896834561252     -0.57468890462138
  C   1.49315718864620     -2.23790047244706     -0.04623440844191
  C   2.87753804204164     -1.74265003628396     -0.04842601808151
  C   3.16971948255097     -0.46129922283615      0.17499747128659
  C   2.10882455414648      0.53869465310920      0.40873674632605
  H   3.68186177926829     -2.45693808530155     -0.15208954799347
  H   4.19092373445186     -0.10913101933956      0.24234836652785
  O   2.39043008444082      1.66848884235233      0.74804096202867
  N   1.32816122372840     -3.56356645041285      0.07286430219523
  H   -2.38802508728588      1.39139068183357     -0.10428771533638
  H   -0.01090750162972      2.03900651118058      0.37713177102979
  H   -2.91707950652852     -0.92956652094102     -0.75900348067190
  O   -1.16849852804992     -2.76896945638532     -1.08226618479780
  C   2.37411830422882     -4.51872189860510     -0.26565005200203
  C   0.17249895687940     -4.16104031343734      0.71724706304022
  H   2.95954159385582     -4.17363272635927     -1.11314362710305
  H   1.89060220781213     -5.45010083833039     -0.55427297458821
  H   3.03347955360222     -4.71836527784196      0.58373299011062
  H   -0.36031495188672     -3.40544897179333      1.28798182434303
  H   0.54336210870721     -4.93275815121159      1.39536743092538
  H   -0.51446870140636     -4.59023770153911     -0.01044648049509
