28
Coordinates from ORCA-job 721optt
  C   2.33198747618165     -1.32676291737308      1.79269803982719
  C   3.21273969468463     -2.43173526387379      1.84938057798433
  C   2.40201356711288     -0.36017894464390      2.78626431015802
  C   4.11635513858927     -2.54984582608255      2.86747211257639
  C   4.20199730450948     -1.57645279317851      3.89182219337489
  C   3.31769555329618     -0.47062941624241      3.82547673955010
  H   1.74495422721610      0.50120530225948      2.77346493386124
  C   3.35113862171113      0.57814790631737      4.86184409553389
  C   5.12396076809185     -1.68744148951644      4.94699083006416
  C   5.19821196768642     -0.71820014623573      5.96267610199979
  C   4.33691869436321      0.40735820039112      5.94512314970893
  O   2.59656147549315      1.54324375939435      4.82481982215746
  C   4.40462337548838      1.36415927947664      6.95061415735094
  C   6.12002770537113     -0.82439918191149      7.03169218034250
  C   5.31403058960045      1.24057923686945      7.99161125355815
  C   6.17940434722204      0.12237010339557      8.01517202456951
  H   3.72798888031927      2.20881373308081      6.89862952661846
  N   5.41951846796308      2.21080878788479      8.96868088555865
  H   6.78780090394041     -1.67713855810147      7.06248003529825
  H   6.89580406987012      0.02731356605137      8.82268286402800
  H   3.16529988295459     -3.18400177658657      1.07078717304959
  H   4.78474762034759     -3.40209924719042      2.89962503553794
  H   5.79217098483109     -2.54031590713078      4.97884959157678
  N   1.45787054843067     -1.20084024200801      0.73116910599645
  H   1.21542192477936     -2.04356619936240      0.23718151997062
  H   0.68743277637872     -0.56468783029718      0.85434251243304
  H   4.63759767681400      2.83716636297923      9.06779727584767
  H   5.83289575675305      1.93424950163455      9.84365195146699
