28
Coordinates from ORCA-job 724optt
  C   1.99698115982417     -0.65472427369619      1.74743091525724
  C   2.82225012320222     -1.78600720575762      1.60552612471588
  C   2.16561128225030      0.22285443110712      2.79844199088936
  C   3.79412870283839     -2.02051313322325      2.56081794003462
  C   3.98481549503208     -1.14063725564232      3.64275773216584
  C   3.15429638300392     -0.00070532710132      3.75231012673091
  H   1.22441880414984     -0.47393046124663      1.00987631245967
  H   1.53841704796933      1.09792725476062      2.90786355883395
  C   2.61783085706932     -2.67693425770371      0.45166206783524
  H   4.41703859113490     -2.90475762767856      2.49710417414737
  C   3.31857937440765      0.94948021324795      4.87168015838175
  C   4.98310588575783     -1.38376846025616      4.61642439035299
  C   5.18966867194299     -0.50702558929490      5.70576184291833
  C   4.38509528928178      0.64745016079348      5.85129575406550
  O   2.60940170990978      1.93613347418613      4.98257592241194
  H   5.60801775040365     -2.26376247530025      4.52219724313510
  C   4.59363601264813      1.51051287125650      6.92420232778509
  C   6.19395289405951     -0.75652849996590      6.66636917813933
  C   5.58334772668591      1.24801879455103      7.85175836686825
  C   6.38540642771142      0.10681023123481      7.71864010624538
  H   3.96022787923454      2.38426479561202      7.00470152445193
  H   5.74088544464327      1.92258413387062      8.68282770537404
  H   6.81231055614635     -1.63962529451795      6.56011717124213
  H   7.15902465748941     -0.09462525058989      8.44817253298655
  C   3.50443058583783     -3.53788079454631     -0.03340333572914
  H   1.65534249929042     -2.58172744089659     -0.04156347554256
  H   4.49372635683087     -3.64852178283048      0.39340996701540
  H   3.27006183124409     -4.15416123037218     -0.89045832317215
