27
Coordinates from ORCA-job 727optt
  C   1.05471989672471     -0.61185066604236      2.06941467864617
  C   0.88667944070060     -0.93683917735658      0.72557173520739
  C   0.20513471505587      0.24704670269935      2.76449502889829
  C   -0.88154503158473      0.81052782256309      2.04904563913583
  C   -1.05282928725071      0.47977412900840      0.67550127823952
  C   -0.16219962529435     -0.39436257403044      0.02992913175638
  H   1.58099624758822     -1.61151505509734      0.24209163174287
  H   -0.31988624004846     -0.62714472730717     -1.01581808477786
  H   1.88902806132553     -1.04909177384116      2.60339988884856
  C   0.57340554032625      0.46464727782643      4.22929566843926
  C   -1.87829831133140      1.74092197968631      2.63917171896342
  C   -2.12749239390535      1.02093747124452     -0.08828277270346
  C   -2.93829591255095      2.24331383139395      1.78447600510839
  C   -3.05414459642303      1.89107128009449      0.46367404526963
  H   -3.63507869731929      2.91780109469539      2.26395324028192
  H   -2.20436657952787      0.73150520499547     -1.12874097703969
  H   -3.85862279826538      2.28514195886221     -0.14349318087756
  O   -1.85524037375643      2.10913246689601      3.81369806845726
  C   1.01036925998809      1.89575452188877      4.55555792823110
  H   1.42325206138116      1.92043433192816      5.56596376239559
  H   0.18207649060925      2.59569742242727      4.50874886125195
  H   1.79139452375495      2.22264057908723      3.86675652718730
  C   -0.45246718573387     -0.09595409957207      5.21870274627510
  H   1.46862692357180     -0.14726638902913      4.36606328623731
  H   -0.02957387946556     -0.06713472283106      6.22484187616750
  H   -0.68223671428838     -1.13635891262910      4.98194896460742
  H   -1.37358553428066      0.47818002243937      5.21908330405030
