15
Coordinates from ORCA-job 729optt
  C   -0.64413045824172      1.16848004013730     -0.56553735651318
  C   -1.79804568494622      1.77835749945542     -0.13734990516610
  C   -0.48850884719852     -0.26595527097423     -0.48120949488892
  C   -1.58339712931551     -1.01859449441711      0.09369145601460
  C   -2.71229994931407     -0.38561861097849      0.53343033316402
  C   -2.83142360013231      1.00805876181259      0.41858349682228
  O   0.54468964946238     -0.82689792509214     -0.88307543291842
  H   -3.52118664026837     -0.95053234507130      0.97730072774396
  C   -1.88185938793114      3.27400499951522     -0.25991271163492
  H   -3.72363655805697      1.48557155179227      0.80654280637611
  H   -1.46041229133708     -2.09143637759174      0.16202470918294
  O   -0.91767436321768      3.97354126776835     -0.30192475861352
  O   -3.11790408486835      3.80698837555350     -0.32485516656671
  H   -3.79108592809755      3.12593765035281     -0.42872110997603
  H   0.17093527346314      1.75203487773752     -0.97314759302609
