20
Coordinates from ORCA-job 734optt
  C   -0.13253213603654      0.20214071654013     -1.09842317222081
  C   -0.67045533979120      1.41328855260840     -0.78830096585758
  C   -0.78656362855048     -1.04227132252200     -0.75493673005858
  C   -2.05035771029705     -0.90853973682242     -0.06279267252151
  C   -2.58324694142449      0.30527305900254      0.24555044730572
  C   -1.91471294613996      1.51291136933662     -0.10339854652685
  O   -0.29730368758488     -2.14824871496329     -1.03410288675752
  H   -3.53091675496895      0.34747132774041      0.76285017563936
  N   -2.44775284518557      2.72398056279350      0.20778573386605
  H   -2.56134333843022     -1.82485484762355      0.20362673627981
  C   -3.71521031061822      2.80818556117966      0.90739731692498
  C   -1.76218056418072      3.94485720757086     -0.16936530244402
  H   -0.77498513608007      4.00395245107021      0.29529277318313
  H   -2.34715172572357      4.79751245459051      0.16152414192146
  H   -1.63904515919897      4.01119733305192     -1.25310138454047
  H   -3.66461134691312      2.30667165601475      1.87668410509863
  H   -4.52117090000666      2.35490117211048      0.32484606219521
  H   -3.95951760788380      3.85248245797287      1.07581567975166
  H   0.81395133150338      0.12995522656897     -1.61867720637426
  H   -0.13952325248886      2.31168351377940     -1.06848430486438
