14
Coordinates from ORCA-job 735optt
  C   -1.61997425284861      1.33356335376840      0.00000068455460
  C   -1.85379558451145     -0.02124346070879      0.00000039964892
  C   -0.26013777471350      1.84038940776489      0.00000204871584
  C   0.80833225519254      0.84816981806061     -0.00000001878017
  C   0.54767595355213     -0.50396020440770     -0.00000027208354
  C   -0.77961123983092     -0.92098936119503      0.00000031653801
  H   -2.87107168371824     -0.39387419824379     -0.00000010762585
  H   -0.99509875060488     -1.98130298429548     -0.00000002192810
  O   -2.57758116674237      2.27046353532355     -0.00000000818063
  O   0.03852376655716      3.04421308718239     -0.00000202625506
  O   2.04197588162695      1.33811475413086     -0.00000046847941
  H   1.36389618114972     -1.21197463642140     -0.00000087489696
  H   -3.44749768940187      1.85596793458834     -0.00000074103936
  H   1.94513410429334      2.30959295445312      0.00000108981172
