20
Coordinates from ORCA-job 736optt
  C   -1.62406320731172      1.73084295599124     -0.00000426132335
  C   -1.82988572698218      0.35175974191011     -0.00001448717960
  C   -0.24404793961747      2.22942169850614      0.00000202678771
  C   0.82407898779298      1.24871897529482      0.00000000180270
  C   0.58100980515344     -0.09207415759230     -0.00000679164967
  C   -0.77679359446987     -0.53506310918881     -0.00001580730289
  H   -2.83905780682674     -0.03922334833591     -0.00002569311546
  H   -0.98776037169716     -1.59568126867987     -0.00003007516018
  C   -2.68684005068661      2.71440943601594     -0.00000182350717
  O   0.00226473740382      3.44153823637280      0.00000730142014
  H   1.83403059146619      1.64036191544840      0.00000525833740
  C   1.70547514836461     -1.03823401745741     -0.00000371852612
  C   -3.99613976435724      2.44880004159272      0.00001261005199
  H   -2.34664757280171      3.74285792243387     -0.00000828918640
  H   -4.39035606708986      1.44038945684733      0.00002434532913
  H   -4.72056679896748      3.25163776919273      0.00001297823100
  C   1.62439462905149     -2.36395420092106      0.00001444638101
  H   2.68684248400565     -0.57474370825018     -0.00001390039834
  H   0.68091757766326     -2.89418594988196      0.00002985690218
  H   2.51928493990662     -2.97085838929863      0.00001602210593
