42
Coordinates from ORCA-job 744optt
  C   2.09910263993334     -0.57167155499582      1.60671592968076
  C   2.93754391665323     -1.65678267424188      1.37684878567983
  C   2.25417757354004      0.24714401632596      2.71890146026047
  C   3.94911567202488     -1.95105938918184      2.25744397871911
  C   4.15451624168793     -1.16689432806973      3.41262117837079
  C   3.29470509119521     -0.04991453497022      3.62909885882620
  H   1.30296932912145     -0.37045231265339      0.90435952930051
  C   1.30423696293179      1.42168959520043      2.88465424302508
  C   3.52839432468808      0.77789330275880      4.83327352133973
  C   5.18461800908065     -1.52908248375174      4.35274682431104
  C   5.14910658460191     -0.95853586328572      5.66604896565792
  C   4.34751999583766      0.17676032467682      5.90740495818892
  O   3.06931285360954      1.89968253419128      4.97927236331783
  C   4.32047201050535      0.78030926112731      7.16331074738255
  C   5.87668577531267     -1.48036650522565      6.76072909993428
  C   5.04611506267220      0.25459501796722      8.21196406136586
  C   5.81757968821003     -0.89186460705821      8.00321845825480
  H   3.70880977524919      1.66401400482101      7.28629990128034
  H   5.01104436394198      0.71757022800562      9.18908228846943
  H   6.46408666417205     -2.37566660566401      6.64066795139492
  H   6.37192015044800     -1.32656574728954      8.82507425536761
  H   4.55757064313404     -2.82313526186618      2.07268949825655
  C   6.26915269742047     -2.49702003815666      3.92574349273147
  H   2.78274902237571     -2.28187568395853      0.50660198993302
  C   -0.08232909179527      1.17405352691138      2.28907449068055
  H   -0.07276067280180      1.18574635909864      1.19766568966754
  H   -0.75373258559362      1.97165281004730      2.60937926451941
  H   -0.50270154971371      0.22285043793754      2.61892581444658
  C   1.92281913663567      2.67886554500879      2.26389216335742
  H   1.17904394393662      1.60645990383168      3.94843129350387
  H   2.06023733548884      2.53601170109621      1.18905234927643
  H   2.88569786735622      2.90517026823278      2.71683158623891
  H   1.26321452035463      3.53568062032864      2.41214336562308
  C   5.98540960373658     -3.93899667654137      4.36971537462836
  H   5.98468082910926     -4.03847451533882      5.45475870327881
  H   6.74824264586332     -4.60949484412465      3.96987505503196
  H   5.01113717030051     -4.27201219581329      4.00924864019270
  C   7.69444444685943     -2.04983840969829      4.28173884384229
  H   6.25838858531399     -2.49832603833614      2.83745649982785
  H   8.40302368812336     -2.63228196176835      3.69085744135056
  H   7.95005178163660     -2.19234066524606      5.32842872518558
  H   7.84083729684129     -0.99616656033121      4.04216235829847
