22
Coordinates from ORCA-job 746optt
  C   1.12308939309751      0.02788798082411      1.68492447678305
  C   0.93251736984949     -0.17541930667091      0.31400439176597
  C   0.08953923975259      0.51081022817268      2.46608235853179
  C   -1.14508062196651      0.79693837421187      1.89193601961024
  C   -1.34804268633931      0.59664391666681      0.51287125101235
  C   -0.28460364736421      0.10406599099161     -0.26632005320806
  H   1.74496749478151     -0.55398792832701     -0.29233768508427
  H   -0.43564403234698     -0.05208829577053     -1.32769572331505
  H   2.08264214734539     -0.19415118668425      2.13295121832581
  H   0.21067764762827      0.67661321177771      3.52856698054144
  C   -2.25405950562160      1.31358414999613      2.72111796486479
  C   -2.61365178839199      0.89294386357408     -0.07220201291297
  C   -3.50337062979423      1.58846141884177      2.04974969599735
  C   -3.67365749596374      1.38319953792685      0.69119689149357
  H   -4.30891969928931      1.96750861974421      2.66669303612783
  H   -2.72748801262591      0.72560581757495     -1.13436451313233
  S   -5.25871519597269      1.77227633222632      0.02977511995306
  O   -2.12267061894327      1.50279556480039      3.92933694605023
  C   -5.08458394911724      1.37302930627890     -1.71350653039261
  H   -4.32491730829844      1.99043454469857     -2.18988607872301
  H   -6.05116435416015      1.59792467845084     -2.15968369055312
  H   -4.86700374625915      0.31636318069486     -1.85978006373608
