18
Coordinates from ORCA-job 751optt
  C   1.31704653813934     -0.04992727218611      1.95806359264393
  C   1.22634463454593     -0.30600463580647      0.58514694156627
  C   0.23549799400874      0.47102488354688      2.64290346338682
  C   -0.95151571469142      0.74469843870120      1.96989202425252
  C   -1.05301184459697      0.49049147944660      0.58678731351967
  C   0.05931693481217     -0.04068986808377     -0.09403308318318
  H   2.07744480471218     -0.71429343785126      0.05627963348903
  H   -0.01655860327773     -0.23696468995135     -1.15649222394147
  H   2.23866783377918     -0.26174461610769      2.48392505962169
  H   0.28191605249596      0.67705012124686      3.70417400949259
  C   -2.10864737105992      1.30176516786590      2.70241208855708
  C   -2.26782770286376      0.77202759022428     -0.09679153713142
  C   -3.31251150073926      1.56304052019648      1.93535135534240
  C   -3.35952287695265      1.29771253849245      0.59065978180578
  H   -4.16242284299543      1.97134877138165      2.46397745996279
  H   -2.34546856228113      0.57688393287170     -1.15804084220081
  Cl  -4.81223705754920      1.62107608034370     -0.29648041294832
  O   -2.06095071548603      1.53547499566896      3.90632537576460
