19
Coordinates from ORCA-job 754optt
  C   1.32977606954248     -0.08559631338833      1.78148910466010
  C   1.23833252878064     -0.34970632529875      0.41770907482502
  C   0.24776504525586      0.44206014297915      2.45523381216202
  C   -0.97287283651874      0.72238425971406      1.76874445274548
  C   -1.03542997964819      0.44043156202676      0.36684740571407
  C   0.07025969135551     -0.09045440016711     -0.28442001540468
  H   2.09472559803452     -0.76376971790672     -0.09794279440970
  H   0.01139474799249     -0.29987079563513     -1.34466373956657
  H   2.23682967151209     -0.28484313298676      2.33501910954063
  O   0.39674787054033      0.67608859476496      3.77291497611259
  C   -2.09312837845451      1.25468432769897      2.40413445468471
  C   -2.25991607303585      0.71776564081612     -0.34245757748219
  C   -3.32211984054282      1.53211552615640      1.69874384549670
  C   -3.34142347778723      1.22954442467146      0.26878951716104
  O   -4.30162291153243      2.00099650849746      2.28601452047456
  H   -2.28031267011019      0.49556419959160     -1.40323065443364
  H   -4.26151554999673      1.43817871426560     -0.26080033224902
  H   -2.12241635360203      1.49433876401781      3.46098399637874
  H   -0.40586315178522      1.04399802018242      4.15522084359013
