20
Coordinates from ORCA-job 756optt
  C   -2.21329948926620      1.39744250746516      0.11447419472538
  C   -3.47627780245210      0.89601985982577      0.50158926309716
  C   -1.06993172433273      0.46519250726961      0.05769601388444
  C   -1.35716907083598     -0.92621032880123      0.31444957071387
  C   -2.59677920889071     -1.36031807170642      0.66103667840863
  C   -3.66506282318808     -0.43776016486293      0.76238799021104
  O   0.08869692740033      0.85683718617467     -0.15743071563911
  H   -4.32397839279503      1.56297144414416      0.55937451295638
  H   -4.65155205651979     -0.78894547035137      1.03463173296864
  H   -2.77500717111948     -2.40810209872511      0.86512567463373
  N   -2.03903312798499      2.71050876940554     -0.15678613797744
  H   -0.51143199809273     -1.59741031849096      0.24197150877913
  C   -3.08595273133599      3.66093758174139      0.16697935144537
  C   -0.89782331252584      3.24032028656041     -0.89740676617018
  H   -0.54558843904884      2.51731153062373     -1.62498717417120
  H   -0.06541382786454      3.47866058330087     -0.23489603180096
  H   -1.22777028307126      4.14249616608136     -1.41097161878963
  H   -3.48198147032894      3.46733208944379      1.16324409469048
  H   -3.90972019222804      3.62134577548635     -0.55338775656772
  H   -2.66261380551898      4.66201016541516      0.15552561460200
