26
Coordinates from ORCA-job 759optt
  C   2.16253340072412     -1.11986769732219      1.71691288123721
  C   3.01019679856650     -2.24133925876658      1.70132811251022
  C   2.25112413271999     -0.19333891696248      2.73832204067020
  C   3.92875738308913     -2.42150226825708      2.70195180226525
  C   4.04336123104464     -1.49319481368859      3.76067481103554
  C   3.18100601816589     -0.36895975060907      3.75628073403644
  O   1.24141381709018     -0.90970076030510      0.74512208237141
  H   1.60135888950394      0.67135803381689      2.75346537204754
  C   3.25724859445025      0.63531394259441      4.83544824848523
  C   4.98237845417932     -1.66718615628664      4.79702518793200
  C   5.09541532375925     -0.74225788225522      5.85237863665054
  C   4.25780782235405      0.39704934258600      5.89250098587096
  O   2.52813110201560      1.61713824081886      4.85432281364613
  C   4.36647919940957      1.31563598529006      6.93299843175150
  C   6.03663544847089     -0.91383443768023      6.89633150166734
  C   5.29510023257784      1.11947539462000      7.93529502228904
  C   6.13733804747444     -0.00744762615453      7.91538952024374
  H   3.70771652767194      2.17687049447751      6.92980539245263
  O   5.45091526926310      1.97583241825795      8.97329392778610
  H   6.68450839611422     -1.78183478876680      6.87896692505286
  H   6.85395027153986     -0.13180769278465      8.71605997892161
  H   2.93108013321786     -2.96066841042459      0.89372364633113
  H   4.58078096592385     -3.28631931240603      2.68847024592348
  H   5.63255262626684     -2.53390291772954      4.78142536651856
  H   1.27644146075482     -1.61648507869377      0.09307350771426
  H   4.82829845365183      2.70601391663143      8.89250282458899
