27
Coordinates from ORCA-job 760optt
  C   1.64587371415435      0.09780470636539      1.86173380227715
  C   1.61693005373453      0.46181094115611      0.50675456665799
  C   0.45035548213743      0.07847280643398      2.56643326782272
  C   -0.75231530893463      0.41175532845660      1.95448229167436
  C   -0.77605509210361      0.77843708990943      0.59195340633941
  C   0.43711122443538      0.79532927541153     -0.11879133165020
  H   2.54449715069279      0.47958948784205     -0.05335807569237
  H   0.43219046858344      1.07458333673728     -1.16569024443771
  C   2.94930168567180     -0.26751754375439      2.53492994938679
  H   0.42052322850605     -0.19676623665567      3.61419885291471
  C   -2.01115935998952      0.38267332030532      2.73111225005753
  C   -2.01228948917287      1.11927297860387     -0.02368978834949
  C   -3.22258793346441      0.74566456532886      2.02382397731776
  C   -3.20482454222331      1.09861687028094      0.69360363850122
  H   -4.14027166695009      0.72374298685684      2.59651245781710
  H   -2.01235114514796      1.39843901827024     -1.06996622075997
  H   -4.12802097218662      1.36444970381119      0.19477259504385
  O   -2.03043448781672      0.06550104933259      3.91939606947732
  C   3.26164016842705      0.68466205154550      3.69120918850789
  H   3.29026870809188      1.72090596387847      3.35338224125497
  H   4.22690458507120      0.43850530616071      4.13610946936843
  H   2.50204524182547      0.60460536933147      4.47088999671289
  C   2.93127413196718     -1.71877415711467      3.01994745927306
  H   3.74108488630695     -0.16773902720558      1.78766911342689
  H   3.89221697098434     -1.98357370891491      3.46352399707772
  H   2.72681741207089     -2.40734223683001      2.19969936732262
  H   2.15982488532900     -1.85965924554316      3.77918770265726
