26
Coordinates from ORCA-job 762optt
  C   2.17510003936509     -1.15374503629116      1.68131055322547
  C   3.02235428777808     -2.25680910445711      1.69381591201792
  C   2.23284290351804     -0.19938641701111      2.69325548154866
  C   3.93318766852970     -2.41841423370329      2.71104034812426
  C   4.01242320441083     -1.46882846941124      3.74794715309484
  C   3.15102849558786     -0.33723126646841      3.75064841222183
  H   1.45777986103929     -1.02530619790568      0.87858466148832
  O   1.40867674265458      0.86604158933848      2.66587532254454
  C   3.23631765615248      0.65050889311219      4.84472517230272
  C   4.95852948598353     -1.65284510640591      4.78468510291029
  C   5.08925136190402     -0.74348741652037      5.84653562360582
  C   4.25522889920243      0.39394834579295      5.89609180607719
  O   2.52636226756408      1.63865147256799      4.92077943239342
  C   4.37200381848861      1.30483550179239      6.93833044109578
  C   6.03839506706464     -0.92650492804313      6.88137922575011
  C   5.30873823595057      1.10150804395132      7.93473295988326
  C   6.14867030045248     -0.02558073574790      7.90476767820952
  H   3.71453373403719      2.16693849156047      6.94436625581901
  O   5.47084787216293      1.95397530888309      8.97418079312866
  H   6.68318388923869     -1.79644488862289      6.85306606680727
  H   6.87047218297511     -0.15481891318353      8.69994569596902
  H   2.95943562112814     -2.98577113088295      0.89649086844649
  H   4.59788711390120     -3.27215753923888      2.72838818511970
  H   5.59984018286120     -2.52517293686373      4.75094879491975
  H   0.84747611288246      0.81247665005219      1.88512804581693
  H   4.84793299516670      2.68462002370620      8.89921000747918
