24
Coordinates from ORCA-job 763optt
  C   2.15478454166481     -1.09811041037770      1.75209391952014
  C   2.99997213502620     -2.21634388516246      1.73921297410945
  C   2.25347240277696     -0.16025726529925      2.74696422414438
  C   3.93796113894047     -2.39850577025079      2.71422061683615
  C   4.05480242127591     -1.45340987158000      3.75691999012666
  C   3.19856716446167     -0.32896776205145      3.75706910362738
  F   1.25525976407590     -0.97640569140395      0.78037029152889
  H   1.60238049703358      0.70390174034333      2.75800945798599
  C   3.28045624266980      0.68232731938043      4.83152469862609
  C   4.99838535872199     -1.62475212963985      4.79451909658914
  C   5.10543235299511     -0.70226510258570      5.86053233931733
  C   4.26917636807368      0.43717279486709      5.90088991243747
  O   2.55947873114873      1.66607300650354      4.83286017930079
  C   4.36976926535769      1.33835935357593      6.95782453878371
  C   6.03409674221354     -0.89704453241046      6.90542428108027
  C   5.28242719095429      1.12574308648104      7.97277527009364
  C   6.11748918165233      0.00124434200511      7.94247973791938
  H   3.71394846093233      2.19902439644855      6.95802702031663
  H   5.35340689158467      1.82688108071953      8.79357138094808
  H   6.67758935915801     -1.76799377742027      6.87932366160135
  H   6.83050819574630     -0.16099673976151      8.74018444418492
  F   2.86231857714945     -3.10157162902640      0.75528290948338
  H   4.57551811716636     -3.27205294410539      2.67746371649357
  H   5.64890889922015     -2.49053960924937      4.77881623494511
