26
Coordinates from ORCA-job 766optt
  C   2.31582671610204     -1.26898127277973      1.80735670079733
  C   3.18674744365861     -2.36653529763613      1.85781700288514
  C   2.36806255606065     -0.30845911727324      2.79485920695946
  C   4.09479983115272     -2.49151825773507      2.88815203775631
  C   4.15346890379904     -1.51716527665414      3.89915981677548
  C   3.27572359948722     -0.41309119588045      3.84583454659401
  H   1.70597601999671      0.54732787210476      2.77668936391269
  C   3.30765780469160      0.62835002461339      4.88673964530452
  C   5.08132297208705     -1.63208251990549      4.96858705172669
  C   5.15845892240620     -0.67325860867672      5.99599221894261
  C   4.28979320674631      0.45271959059476      5.98415736804096
  O   2.56248923836630      1.59304333031216      4.85109897434432
  C   4.34298614423706      1.40298404153903      6.98997239532244
  C   6.08221730811901     -0.77949848918652      7.07166667350929
  C   5.25355801818363      1.26491969195183      8.02716047553441
  C   6.11994416725048      0.17769524232073      8.06646306178363
  H   3.66224468154797      2.24150533635710      6.93973983387263
  H   5.29560278920238      2.00597707168936      8.81427582987657
  O   6.95888149853166     -1.80445652885998      7.18051395414888
  H   6.83716956317328      0.05630071769136      8.86689414728278
  O   3.17303043414603     -3.33618171101685      0.90933565028983
  H   4.75700059113197     -3.34767390869929      2.90539641713018
  H   5.72718424498082     -2.50214497302447      4.95499267983729
  H   1.60703584711474     -1.18365638265232      0.99150932701490
  H   2.50130497137658     -3.14332414543421      0.24776798451101
  H   6.87048252644981     -2.41749523375986      6.44602763584647
