20
Coordinates from ORCA-job 767optt
  C   1.23143669862098     -0.06445699561959      1.97698841053763
  C   1.15653031067369     -0.34053333724815      0.59835287564521
  C   0.15766881204967      0.47794891065155      2.64435552556668
  C   -1.03075226310870      0.76469272103257      1.97283772598686
  C   -1.12142240195284      0.49079242796697      0.59392017777371
  C   -0.02047092256763     -0.05976441664022     -0.07837421801458
  N   2.22979707113957     -0.93340198665068     -0.04645232488564
  H   -0.09678275851640     -0.27147780882184     -1.13910369154301
  H   2.14822838522864     -0.28933938291443      2.50906970779905
  H   0.21101857737101      0.69401864495142      3.70358189746388
  C   -2.17480337566293      1.34451517690630      2.69391051848760
  C   -2.33799213526413      0.78183046957784     -0.09544028337066
  C   -3.37216779678147      1.60858814460041      1.91471339800715
  C   -3.43062991734103      1.32915877399877      0.56780194732246
  H   -4.21158068118122      2.03436211351033      2.44799504378215
  H   -2.39864950538707      0.56691151454336     -1.15500233293310
  H   -4.33697648308045      1.53629805204420      0.01320073050757
  O   -2.13036455442268      1.59656204441849      3.89742326409617
  H   3.12976657967137     -0.81311906657032      0.38897822930525
  H   2.25932636051163     -0.83320599973701     -1.04792660153437
