40
Coordinates from ORCA-job 773optt
  C   1.83877696126378     -1.28969219817328      2.00054931669872
  C   2.65836540164136     -2.40243840792565      2.09793937450746
  C   1.99810283787613     -0.20147407239431      2.87437232407798
  C   3.68908864613945     -2.45302430068637      3.01073459967887
  C   3.87931399892423     -1.39785492034165      3.92164018929407
  C   2.95574476664165     -0.31159226926074      3.92777344745418
  C   2.84044955973304      0.49919045885377      5.14840099209838
  C   4.93903205251727     -1.47591812322850      4.89121863372131
  C   4.99283691001122     -0.53116931754934      5.96709372430889
  C   3.94352598695064      0.39399295063361      6.13075883648196
  O   1.87609591567359      1.21215817712538      5.39641100717740
  C   3.95940779351654      1.29374666695504      7.19706505654031
  C   6.08877528289763     -0.45288552718385      6.85525841663521
  C   5.01556538760299      1.31956914140098      8.08380968014746
  C   6.09497488911786      0.44999346333130      7.89276060837942
  H   3.12602664805653      1.97740255377356      7.28883784780943
  H   5.02308252780638      2.02342849129447      8.90539567826941
  H   6.94492428258272     -1.09399973733144      6.70464466140729
  H   6.94764590897796      0.49361188654387      8.55837309145955
  H   2.50250696809586     -3.23279018789536      1.42043719986198
  H   4.31878466620025     -3.32724220416433      3.05907560581958
  N   5.90251016676775     -2.46151504374123      4.79207666030145
  N   1.23846349850910      0.92279547045682      2.69864931174572
  H   1.09456918254626     -1.25169119004479      1.21980642413000
  C   1.76898766764467      2.25288439981446      2.92231454216663
  C   0.07636064866651      0.88642437851609      1.84177579096292
  H   -0.51472001208140     -0.00777959365793      2.03462302852470
  H   0.33464187043529      0.91850092343952      0.77459781903057
  H   -0.54260312980343      1.75379643947552      2.06772230269387
  H   2.81619356201744      2.19925012491081      3.20754101742469
  H   1.22695332559101      2.77293515581656      3.71223641397221
  H   1.69559104329310      2.82119991220041      1.98935438900248
  C   6.63559118865098     -2.72483255896399      3.57321476548426
  C   6.25047047202131     -3.32567265224942      5.89885618447655
  H   6.48198122564448     -3.74909659114283      3.21623581019576
  H   7.70793292945141     -2.59452368245723      3.75827726819191
  H   6.33020603038351     -2.03254770120352      2.79356615486183
  H   5.64549790388099     -3.08673549807755      6.76926747848266
  H   7.30914064314088     -3.23992902715804      6.16730143983488
  H   6.06130439101274     -4.36878578971074      5.62049290668765
