22
Coordinates from ORCA-job 774optt
  C   0.81155206546252      0.04663038310202      1.60032745588511
  C   0.63562455198083     -0.17026637036102      0.22798921225042
  C   -0.21975806549589      0.56289428196591      2.36133763009314
  C   -1.44079137032290      0.87034766023177      1.76743204436676
  C   -1.63012878299440      0.65572875788193      0.38624740033714
  C   -0.56538660129714      0.12874985283765     -0.37221126699112
  H   1.44818305366584     -0.57476860103630     -0.36114916039591
  H   -0.70638085093994     -0.03741203764708     -1.43339164682314
  H   1.75969269477286     -0.19204061096202      2.06398218812949
  H   -0.10836650934666      0.73961233937184      3.42311898862987
  C   -2.54546260108849      1.42417123768024      2.57645488618548
  C   -2.87758558742293      0.97144890183479     -0.21330520401920
  C   -3.77994740005565      1.71711524438032      1.87941152526409
  C   -3.94698394038260      1.49774254467797      0.52715666603691
  H   -4.58372893134606      2.12396532156582      2.48088746625341
  H   -2.98790442997572      0.79726329985328     -1.27585309902469
  C   -5.24211864310275      1.82561660997132     -0.09319261192681
  O   -2.42466641686823      1.62765515458109      3.78291469818854
  C   -5.58105423731470      1.64567021642364     -1.36405959843349
  H   -5.97213326516704      2.25453824446083      0.58564917938267
  H   -4.90706279804118      1.22023214909729     -2.09653697085816
  H   -6.56491193471978      1.92306542008870     -1.71636978253053
