28
Coordinates from ORCA-job 778optt
  C   3.55081691738149     -0.80921392781951      2.47167047615734
  C   4.13460622558181     -2.09600117782653      2.48443133523442
  C   3.88152873466291      0.11244856542424      3.42666127323121
  C   4.81096696308542     -0.21203964391892      4.44158786104968
  C   5.40317962216486     -1.50088244215532      4.45476530664377
  C   5.03897161687020     -2.43299487184196      3.44995843138023
  H   2.83988585493773     -0.55382997285620      1.69695337322469
  H   3.86275541997313     -2.81360744489871      1.72133988529576
  H   3.44970409678853      1.10342239431927      3.41840494246050
  H   5.49384585382730     -3.41598201610361      3.46332797787556
  C   5.15636619808328      0.73138459970594      5.45322240417532
  C   6.07208020068540      0.41873650249066      6.44174511908897
  C   6.68177961719537     -0.88377363272557      6.42666467932756
  C   6.33503253803954     -1.80996299032346      5.45763361139146
  O   4.57279465859692      1.94959055990048      5.35682983969335
  H   6.80004288561214     -2.78905371433899      5.46652797104688
  C   6.48167595599427      1.38818688339547      7.49240401792869
  C   7.66511204543704     -1.21772372371271      7.40216753027041
  C   7.52249165800366      0.95517619373704      8.41108437006258
  C   8.07350379507394     -0.30319111252458      8.36370833374955
  O   5.98349758254004      2.50189094743784      7.61695871151825
  H   7.82207680029198      1.68327223853947      9.15290217719393
  H   8.10252547587190     -2.20721301012505      7.36883230777829
  H   8.83299581295850     -0.58752208748598      9.08097150495832
  C   3.46112996499485      2.15664282964309      6.22181805185891
  H   3.74534483739663      2.00351943221111      7.26143718278476
  H   2.64456149976614      1.48321538982154      5.94442038461409
  H   3.15377716818468      3.18964523203095      6.08270094000523
