19
Coordinates from ORCA-job 785optt
  C   1.34070783762883     -0.07722797786514      1.83591306167847
  C   1.26326783702456     -0.34959598906270      0.45732844906833
  C   0.25688239577723      0.44582142295414      2.48622357157130
  C   -0.94808698000665      0.71833602601346      1.78738717901348
  C   -1.01965773368989      0.44039338524158      0.38971956350122
  C   0.10743713951314     -0.09534351906264     -0.24768827301873
  H   2.12232357707473     -0.76397002010825     -0.05416575891327
  H   0.05977536221934     -0.30913740234054     -1.30847037890417
  H   2.25558275275027     -0.28264304769385      2.37486941399709
  H   0.29858772469362      0.66147461459526      3.54688433940380
  C   -2.06650540551484      1.25117890082598      2.42963470276537
  C   -2.23006406342966      0.71105031858752     -0.32599674842496
  C   -3.29450677515177      1.53212001539376      1.73908154417633
  C   -3.31737818693524      1.22609283502096      0.29164287493397
  O   -4.27983527246928      2.00087188733466      2.31144218698416
  H   -2.26021544101763      0.49111102301705     -1.38847567392575
  O   -4.48434215050247      1.50412237150955     -0.31156655310768
  H   -2.04878172314861      1.47484634902054      3.48908704163579
  H   -4.43302089481566      1.28322880661866     -1.24782054243476
