34
Coordinates from ORCA-job 786optt
  C   3.64329428154364     -0.12772095039330      2.70561675913623
  C   4.27135360002407     -1.35895820354191      2.41274621936632
  C   3.92567642426296      0.54209018882016      3.86316496828433
  C   4.85517430756056      0.01911896833317      4.79914496961657
  C   5.48524219977091     -1.22037526355375      4.49932185065199
  C   5.17032523938854     -1.89091378477887      3.28923606239512
  H   2.93146992816733      0.28806039123269      2.00457938827803
  H   4.03582551344910     -1.87612868245300      1.49178514435179
  H   3.43891367096535      1.48369356414254      4.07625032353677
  H   5.65942380238796     -2.83407819339485      3.07746557554903
  C   5.16839658580568      0.69932330828272      6.01604989075961
  C   6.08085455259093      0.15256076819529      6.89873093396071
  C   6.71243195829697     -1.10095008311834      6.58983673806801
  C   6.40604599953234     -1.75470373061949      5.41055194665228
  C   4.47242076109541      1.99295606654255      6.27160229198780
  H   6.88670640413579     -2.70005548216250      5.18438389994057
  C   6.44361017548144      0.82438939899539      8.18269585821658
  C   7.65333977646766     -1.67563984404467      7.49454286225877
  C   7.41292420993317      0.15024486285247      9.03064212077170
  C   7.98689829728209     -1.05154458478558      8.68772056422252
  O   5.96557740295068      1.89532943145397      8.53534171042025
  H   7.65705472370838      0.65734387026493      9.95444854989857
  H   8.10727903349354     -2.62118397184214      7.22670360120402
  H   8.70484186380318     -1.51690014927905      9.35113560465341
  C   3.23591132484083      2.00832322640703      6.90688955665334
  C   5.01700511411125      3.18558177178000      5.80917608219155
  C   2.56085244490741      3.20564572643557      7.09536150466053
  C   4.34197012613685      4.38273263274977      5.99767177167194
  C   3.11260324780744      4.39620129803150      6.64247333453025
  H   1.60222977445979      3.20834134809615      7.59798135616441
  H   2.58660604189663      5.33022552162252      6.79047312533597
  H   2.80897606907815      1.07859913191183      7.26278446130077
  H   5.97845648004837      3.17326796093806      5.31037229695981
  H   4.77787866461549      5.30708348687913      5.64117867635027
