20
Coordinates from ORCA-job 787optt
  C   -1.97352391169956      1.35349309131797     -0.48554641316467
  C   -3.17212557723497      0.95179004039434      0.11608866821856
  C   -0.80931289825332      0.43416215614152     -0.44747736501064
  C   -0.92741367456102     -0.76951616142957      0.34690750905440
  C   -2.08463865216749     -1.07394719157817      0.98883751251583
  C   -3.20809357640725     -0.23569858466488      0.84478610360130
  O   0.22382574420178      0.69850647201026     -1.06517247636868
  H   -4.15298563940014     -0.53770914936229      1.27878417471868
  H   -2.17229477506812     -1.97849584951148      1.57628726076759
  S   -1.58375016221221      2.79160676279334     -1.35991050958614
  H   -0.05302724975758     -1.40542749357863      0.38287719197254
  C   -2.69624506262539      4.08880961232364     -0.78594578417706
  H   -2.16698605897916      5.00991222564874     -1.02756473024360
  H   -2.82512858807765      4.02833398872872      0.29185801343813
  H   -3.65930861163225      4.06809692187882     -1.28287056082174
  S   -4.73010458269170      1.77351652148056     -0.13460822144987
  C   -5.04992055905300      2.40332834748700      1.52932887891583
  H   -4.32106288290240      3.16230052803641      1.80922252815830
  H   -5.03729969628153      1.59414356557772      2.25679443176011
  H   -6.04367358519681      2.84728419630583      1.50753378770114
