18
Coordinates from ORCA-job 796optt
  C   1.24249857316553     -0.03149326676604      1.91906638480223
  C   1.16709864157272     -0.29412864103660      0.54614076012190
  C   0.16884352716650      0.48702187399234      2.61176740591336
  C   -1.01456659519114      0.75709239807836      1.93036747951422
  C   -1.11602681160869      0.50329803085166      0.54717385648211
  C   0.00011565236029     -0.02840705695917     -0.12744908100952
  H   2.02757954660386     -0.70216930244702      0.03439493870085
  H   -0.06861914545558     -0.22766496700924     -1.18984416165129
  Cl  2.71921184127644     -0.36874268761942      2.75066322371998
  H   0.22477188317325      0.68976588635521      3.67275692977939
  C   -2.17092567925228      1.31460111702849      2.66658264983088
  C   -2.33335296197451      0.78808037999567     -0.13114472158714
  C   -3.36886806735583      1.57490207531910      1.89515341755797
  C   -3.42983111050607      1.31429323818156      0.54509009421207
  H   -4.21155182787123      1.98392463084961      2.43644412588235
  H   -2.39525658440107      0.58777270033112     -1.19338406782623
  H   -4.34061995405714      1.52003769997902     -0.00233596867107
  O   -2.11494092764507      1.54475589087532      3.87260673422792
