15
Coordinates from ORCA-job 799optt
  C   0.08918368332520      0.87289550729175     -0.93891276381363
  C   -0.65779578571713      1.96143398130131     -0.59968267688513
  C   -0.40871423791013     -0.47078542249234     -0.71372732393605
  C   -1.72078454979539     -0.59687180048591     -0.10700254509741
  C   -2.45328866508683      0.51139025419023      0.21077343338202
  C   -1.94066509219152      1.79852075078243     -0.04038880017442
  O   0.25628905969200     -1.46984975960512     -1.01864396276210
  H   -3.41690269063212      0.38889198499555      0.69220413980798
  C   -2.69644691099646      3.04537454179524      0.29807257073035
  H   -2.08054810872169     -1.59908525927289      0.08412826572704
  O   -2.15310053417972      4.09368987675254      0.47917987227846
  O   -4.03480864298305      2.94363223489315      0.39564595648751
  H   -4.34764806985092      2.08263245816375      0.09753338132219
  H   1.07215247407020      0.96395947127417     -1.38170292815286
  H   -0.29579192902240      2.96963118041614     -0.75072661891394
