30
Coordinates from ORCA-job 79optt
  C   2.13613976902832      0.74852165350348      1.67421956035697
  C   2.73981893222637     -0.44635528854774      1.42084496272675
  C   0.82456799531695      1.12687391186386      1.10412423232744
  C   0.20557054003826      0.15150299867322      0.23009318417355
  C   0.83999808075265     -1.09034914518370      0.01193263248255
  C   2.09095813565980     -1.37787147417035      0.59369644216995
  C   -1.04015425455247      0.46374409848151     -0.44365781781813
  C   -1.49679841683926     -0.55256849802252     -1.40760171579704
  C   -0.85885386873008     -1.73832609741960     -1.61869639435648
  C   0.29096355655116     -2.05254962249131     -0.87912086182111
  O   0.37219500719788      2.22151898366030      1.40526252228196
  O   -1.70732248992195      1.47759525172077     -0.29919693526596
  H   -2.40195369392769     -0.29984301858789     -1.94787993055224
  H   -1.22864809681297     -2.46078399073141     -2.33395082858534
  H   2.57386173284394     -2.32280584234783      0.40343434145886
  C   0.84273006474651     -3.42276963523534     -1.13919488216997
  H   2.61354602661773      1.47930156400273      2.31760894473485
  C   4.07266532421112     -0.73018799221340      2.03809737480793
  O   4.64350084226325      0.02917275687121      2.76814584770499
  O   4.55043346933993     -1.92503327470627      1.68015283169155
  C   5.82855999332774     -2.25602368587422      2.23034986941216
  H   6.07263475268748     -3.23964653492898      1.84257064805032
  H   5.77463589563808     -2.27033339878241      3.31738662777399
  H   6.57000258624571     -1.52244079943290      1.91918546003064
  O   0.83174247325888     -3.91690311331784     -2.23290453263388
  O   1.27526725021800     -4.05270310344549     -0.04496466622959
  C   1.75275798308713     -5.38532085974711     -0.26292927573066
  H   2.05170822034953     -5.75295589714920      0.71309678014317
  H   2.59635923190513     -5.37381178082367     -0.95093723605942
  H   0.95883295727280     -6.00023816561780     -0.68253718530782
