44
Coordinates from ORCA-job 805optt
  C   2.08975722126846     -1.34321753429147      1.67910856220614
  C   2.95093471684200     -2.44909100459218      1.72139161392798
  C   2.13404532945119     -0.32390891942512      2.62196837658561
  C   3.85948545235386     -2.52762963325048      2.75588589060528
  C   3.94672916747450     -1.51427287926146      3.72867441431611
  C   3.09391095993505     -0.38122127092594      3.64953867843613
  C   1.10961404382660      0.74765671933679      2.48790087246739
  C   3.29346267865957      0.73381672476248      4.60922632364682
  C   4.88096362570060     -1.64734592153436      4.78347555626581
  C   5.01864460684409     -0.67035779028414      5.79171638616964
  C   4.24247431587778      0.50622019689057      5.72630320795166
  O   2.73666001478661      1.81104231938986      4.49117645483112
  C   4.37980922514385      1.48367846415561      6.70881452743799
  C   5.92512188608474     -0.83104651953120      6.86186565885403
  C   5.26586171425717      1.30482229874128      7.75398646568231
  C   6.04205250557088      0.14043985167433      7.82712181242654
  H   3.77663656527722      2.37814512298505      6.62628603526903
  H   5.36380467469233      2.06535407814632      8.51722978898548
  H   6.52508145260780     -1.73167548930836      6.91070306966663
  H   6.73696521516689      0.00757338129641      8.64608211438637
  C   2.86599726339758     -3.51420834271579      0.69636962323953
  H   4.50755595687517     -3.39161066891196      2.84494663004842
  H   5.50094679468095     -2.53496543601158      4.81963883314856
  H   1.35717031428555     -1.27286040069584      0.88422225275876
  C   1.03591894706528      1.50074246870248      1.32131570105068
  C   0.15285295011536      0.94264388477749      3.48144366220628
  C   0.03470480805574      2.44993511580650      1.15684203668795
  C   -0.85227419240749      1.87895369792818      3.31322939753485
  C   -0.91253814712607      2.63952720056765      2.15073707834339
  H   -0.00267991862480      3.03954834572143      0.24996034043251
  H   -1.69520705006526      3.37590557310254      2.02328174905324
  H   1.77770751300738      1.35367309427373      0.54560028562146
  H   0.20769447441675      0.35924742190527      4.39229144739991
  H   -1.59077478246302      2.01972821773067      4.09177695475538
  C   1.62956299113678     -3.93958779015496      0.21014514597109
  C   4.02298120774122     -4.11603879064436      0.20075723775288
  C   1.55220462966887     -4.94417194494639     -0.74269354980027
  C   3.94616418094677     -5.11765733635724     -0.75505252155087
  C   2.71006289019024     -5.53600560869869     -1.22907216244139
  H   0.58461586713396     -5.26970523051248     -1.10191108621003
  H   2.64941296106825     -6.31806746120085     -1.97441306971527
  H   0.72164265708195     -3.49619272493758      0.59977466277301
  H   4.99038718805357     -3.77735124791261      0.55062241431582
  H   4.85392512394395     -5.56702423178950     -1.13632887349412
