21
Coordinates from ORCA-job 806optt
  C   1.18803799543152      0.00513551453890      2.01708248934637
  C   1.12436170037492     -0.25829381260003      0.64540701719544
  C   0.09249107140376      0.52760177889012      2.68008577650419
  C   -1.08187130429566      0.79372524844729      1.98198041493966
  C   -1.15633459295756      0.53115561012182      0.59935862684040
  C   -0.03191428054297      0.00066365342304     -0.05703455043490
  H   1.98643824767662     -0.66710857771973      0.13527886234346
  H   -0.08821862373897     -0.20117864169294     -1.11963298020104
  H   2.09968498899339     -0.20138199976670      2.56189195300355
  H   0.12327905719408      0.73785675746521      3.74077898235774
  C   -2.24845987775690      1.35055837707807      2.68978963482837
  C   -2.36644122125933      0.80813608060186     -0.09713975156999
  C   -3.45086720734424      1.60526295842482      1.90827330913542
  C   -3.47477032634340      1.33078701330652      0.55753028666065
  C   -4.70315259631098      2.17039025152196      2.52774920763221
  H   -2.41419976826026      0.60323559529211     -1.15924548141364
  H   -4.39070703503119      1.53714986205679      0.01904407311241
  O   -2.19275149243737      1.58645360455009      3.90310890949821
  O   -5.68470253740759      2.36905051884698      1.86619234419521
  O   -4.65634734420456      2.43036626897435      3.82609119375761
  H   -3.76521485318329      2.19326393823944      4.17142968226867
