28
Coordinates from ORCA-job 809optt
  C   2.51121373669193     -1.43798485340367      1.86820684156646
  C   3.42014010569013     -2.49611095118073      1.95923995709564
  C   2.48432557348311     -0.44997957469181      2.83069715502178
  C   4.31281390601607     -2.57888846610783      3.01086728071752
  C   4.30498367789911     -1.56365330720692      4.01896337924757
  C   3.36958197722566     -0.50428451915201      3.90117101009136
  H   1.78920456616221      0.37688469447453      2.78111635647940
  C   3.31306227440987      0.57236340422372      4.91701108523643
  C   5.19282535192136     -1.58651509987391      5.11349625553917
  C   5.18690538323903     -0.57981841723797      6.11007696828685
  C   4.27236778770584      0.49228068036470      6.03527429417470
  O   2.50788487658401      1.48502583952184      4.82996972375524
  C   4.27128296313891      1.48087554598707      7.01715671481015
  C   6.08931657083147     -0.62372200334066      7.19413549970585
  C   5.16362632259626      1.41974288408462      8.06942001081558
  C   6.07606853169662      0.35976499950415      8.15465751935877
  H   3.55606095606654      2.28791957812168      6.92742235678725
  H   5.16016367873931      2.18959503430537      8.82964606875615
  H   6.79346601927123     -1.44446137147230      7.25715389159355
  H   6.77344724958192      0.31573061621712      8.98110434712592
  H   3.40984301260523     -3.25114601034954      1.18734990651947
  S   5.47615169262471     -3.88581971874281      3.17940096772555
  H   5.91191989340129     -2.38918166939002      5.21188821911055
  H   1.82615068141545     -1.40270147831382      1.03132199795999
  C   5.15973337711123     -4.89681956199699      1.73043757919646
  H   4.14829909341540     -5.29908740192230      1.74021421548376
  H   5.86931808121684     -5.71915437550151      1.79324487450386
  H   5.34084265925915     -4.34065449692002      0.81237552333490
