20
Coordinates from ORCA-job 813optt
  C   -1.50258826358080      1.67870754968275     -0.25070755819302
  C   -2.78667009574119      1.64335421080411      0.26089647712531
  C   -0.69830058690589      0.45531261574931     -0.34821858602346
  C   -1.33029272945283     -0.76381222612303      0.11117381846732
  C   -2.59154393947945     -0.76920446470445      0.60706229225585
  C   -3.34207227562044      0.43654815927859      0.69297764868537
  O   0.45025827698799      0.48294289107831     -0.79842463306677
  H   -3.04631922917849     -1.69193281114476      0.94727651158193
  S   -0.67957113065658      3.08598428922285     -0.82479687142278
  C   -1.91686320530911      4.36552827271071     -0.57621414589250
  H   -1.46233102593219      5.29064998873034     -0.92385656003832
  H   -2.17147151451295      4.47078562380789      0.47767470908794
  H   -2.81248378294697      4.16866360165829     -1.16421925960604
  S   -4.93693948857431      0.27342665447565      1.35619699445560
  C   -5.57564597461612      1.95119890700056      1.34122782180445
  H   -6.57704090104738      1.89015132805987      1.76161063422955
  H   -5.63818224761813      2.33741489026477      0.32536799701528
  H   -4.96690358147308      2.60567538199169      1.96271289147058
  H   -3.36566452085358      2.55117761421879      0.32812503550676
  H   -0.74236378348845     -1.66924247676227      0.03859478255694
