28
Coordinates from ORCA-job 816optt
  C   3.40321934916193     -0.52045054252471      2.70921023455644
  C   3.99242299758521     -1.79923519150883      2.60185540894705
  C   3.75252022488014      0.32846404057371      3.72215820982263
  C   4.71495129390125     -0.04468888825056      4.69666687641677
  C   5.33407866324470     -1.31979812222729      4.55700717560838
  C   4.94024757014345     -2.18406833363368      3.50229572913498
  H   2.67203952141714     -0.20633031241215      1.97589040775475
  H   3.69965622126601     -2.46214583792893      1.79822199157414
  H   3.30075954032841      1.30671347915960      3.77873649496435
  H   5.41725514733980     -3.15364976344262      3.42557555820683
  C   5.10403924498402      0.81709338926482      5.77483734044403
  C   6.12295530251334      0.42509875298069      6.63204242096440
  C   6.74900615480045     -0.85581706600214      6.47136933072612
  C   6.33721429697472     -1.69994349030791      5.45719872646494
  C   4.41370846633024      2.11564284345275      5.95401337898083
  H   6.80464983776903     -2.67223721104635      5.34873612037212
  C   6.58513658865241      1.28920563769673      7.75423894451367
  C   7.78392156637937     -1.27279388670851      7.35893811872783
  C   7.64898565221581      0.77253895324779      8.59857958971593
  C   8.21836253865601     -0.46247967211640      8.39733789651454
  O   6.11411327515122      2.39892065278216      7.98412050197383
  H   7.96545972787570      1.42472287775729      9.40145573350496
  H   8.22723099942771     -2.24804040662744      7.20334970645754
  H   9.00782779633000     -0.80871861457942      9.05222265809497
  C   3.10427967229653      2.23039904313131      6.12800871237973
  H   5.03859928175325      2.99832367607381      5.98112561570207
  H   2.45644867487650      1.36194506894866      6.15841363888241
  H   2.64581039374556      3.19916892424759      6.27486347859364
