49
Coordinates from ORCA-job 817optt
  C   0.51289060567740      1.08086665730330      0.06996639979452
  C   1.78746582567056      0.80265206116840     -0.32970983911843
  C   -0.44883273163899     -0.03202551883142      0.18616378961939
  C   -0.00012730289565     -1.40175654058602     -0.13731878332270
  C   1.29618081172806     -1.58415221611306     -0.52881716179591
  C   2.20364790690648     -0.51130375055660     -0.63048242092620
  O   -1.61189434609154      0.17328363288958      0.54819886781915
  H   2.53182693513324      1.57817132012121     -0.43056552218688
  H   1.63609576855751     -2.58128210629205     -0.76960687132778
  C   0.05707763852205      2.49546625859701      0.40134597587574
  C   1.18929516139778      3.50776669293857      0.21313334562874
  H   2.03536331245330      3.29776496449260      0.86997422803345
  H   0.81589857827656      4.50285105630131      0.45790580299802
  H   1.54708610356297      3.52933106467110     -0.81790511500908
  C   -1.09980199754963      2.90638303133012     -0.52599344686157
  H   -1.38734364261525      3.93614792688028     -0.30391050895071
  H   -1.96566989112636      2.26448263967273     -0.38848882457269
  H   -0.78643448700542      2.86153147944356     -1.57110782348584
  C   -0.39923854416858      2.56680114854697      1.86883991756672
  H   0.41645575887552      2.28272153494026      2.53695379798866
  H   -1.24955368078136      1.91535325222219      2.05197234360623
  H   -0.68673188470085      3.59351169745608      2.10486242912356
  C   -0.98826517486741     -2.55478179664002     -0.02483690395131
  C   -2.17386784387156     -2.32218449010434     -0.97744521408207
  H   -2.71651885118926     -1.41755857505428     -0.71770834313703
  H   -2.85655898147489     -3.17216286032602     -0.91481835422088
  H   -1.82580976423982     -2.24308284760519     -2.00951027556042
  C   -0.34488904662348     -3.89198942639427     -0.40062943513259
  H   0.00913762650610     -3.89698995589557     -1.43384078303006
  H   -1.09114843639552     -4.68115763148308     -0.30404535938828
  H   0.48757287899162     -4.14217817818540      0.26065730537115
  C   -1.49464267988521     -2.67078243886900      1.42349022735022
  H   -2.02243440352859     -1.77204774697385      1.72994932708166
  H   -0.66124906885677     -2.84349079636497      2.10774319374112
  H   -2.17541596672032     -3.52133111947039      1.49808498802853
  C   3.57642055122196     -0.71747854507990     -1.04281738489934
  N   4.46651106341780      0.23970890794571     -1.17531747824826
  N   4.10103194140730     -1.95392612420248     -1.34545667283593
  C   5.62114278650003     -0.37937239842387     -1.57845723392281
  C   5.41479111191382     -1.76794707056830     -1.69210191067685
  C   6.87732616056531      0.16401492361737     -1.86539116586015
  C   7.87894916694630     -0.69920047458976     -2.25411389930590
  C   7.65443645670268     -2.08427020731057     -2.36201548403003
  C   6.42289720984644     -2.64407181152977     -2.08423574076361
  H   7.04137508362552      1.22960023079026     -1.78000072186083
  H   8.86194742222022     -0.30986869305314     -2.48289494808523
  H   8.46870142274823     -2.72623533144333     -2.67095087920853
  H   6.25514366140619     -3.70948577143712     -2.16882669730194
  H   3.61730977544538     -2.83303605794480     -1.30622073656702
