20
Coordinates from ORCA-job 823optt
  C   1.32660758246424     -0.09465956238991      1.86128400364432
  C   1.28206628600350     -0.28552792082415      0.47673306443971
  C   0.22346272083835      0.39701525231016      2.51564892446726
  C   -0.96297414113403      0.70322129120179      1.81214666112494
  C   -1.01289658271360      0.47584620220217      0.40816271810266
  C   0.12923012584388      0.00006315243599     -0.23473269131421
  H   2.15590832437286     -0.65188919030955     -0.04553183736308
  H   0.13724597592643     -0.12843951064051     -1.30865299213396
  H   2.22996690375625     -0.32331636265750      2.41066333423872
  H   0.24698266838442      0.56677642121472      3.58503100236122
  C   -2.07589687710655      1.24793166813288      2.47190725406759
  C   -2.25347239555809      0.76225116066132     -0.31007717893834
  C   -3.28911400981196      1.58418785279141      1.75996905765429
  C   -3.31518343131885      1.29712387273056      0.33803495960423
  O   -4.25431488481909      2.07139256680013      2.35665955841377
  N   -2.27637163732431      0.52385911917324     -1.67490597511713
  H   -4.23893148674689      1.51421825699069     -0.18395338307957
  H   -2.05439903157619      1.44034230394861      3.53676624129548
  H   -3.19084725263362      0.58942835013595     -2.09416463479161
  H   -1.77127885684670     -0.28774492390800     -1.99322808667629
