16
Coordinates from ORCA-job 833optt
  C   -1.70915828451675      1.01460081680994      0.00000046674554
  C   -1.76966645218340     -0.34071448722492      0.00000167083162
  C   -0.43332185867700      1.71598497072569     -0.00000490794705
  C   0.75955778737296      0.88642698343241     -0.00000045991242
  C   0.66728296341703     -0.47097881722877      0.00000078953885
  C   -0.58740472338506     -1.12995971571680      0.00000050138946
  H   -2.73388562123002     -0.83174171279981      0.00000389747229
  C   -0.61331561089754     -2.57731664059163      0.00000029436435
  H   -2.60084377102595      1.62789127585898      0.00000205704949
  O   -0.37023480065276      2.94882025125735     -0.00000169803657
  H   1.71299783315659      1.39821391196781      0.00000021122197
  H   1.56516462807252     -1.07809095621166      0.00000201724909
  C   -1.70289748165963     -3.35344897804819     -0.00000154812882
  H   0.36009410115291     -3.05760249554897      0.00000136793745
  H   -2.70687946246531     -2.95060431841894     -0.00000291094771
  H   -1.61160924647859     -4.43064008826249     -0.00000174882753
