26
Coordinates from ORCA-job 835optt
  C   2.16637591112198     -1.14324886315640      1.68773366509515
  C   3.02065270245339     -2.23910435094527      1.69979678909303
  C   2.21916859281538     -0.18610730260177      2.69917079535541
  C   3.93426875842865     -2.39314087631442      2.71692674501036
  C   4.00558258393676     -1.44193518880494      3.75171014233375
  C   3.14026777705116     -0.31747972789649      3.75347390520734
  H   1.44648876843780     -1.02113863838829      0.88637361943465
  O   1.38776019092893      0.87215965277008      2.67191650122660
  C   3.22764717450614      0.67346195603442      4.84820983922480
  C   4.95284536515847     -1.62232214466593      4.79118510972978
  C   5.08338698614493     -0.71848824848843      5.85894115573796
  C   4.24709270055427      0.42542428351234      5.90563247971998
  O   2.51443137777722      1.65635809466109      4.91336687143522
  C   4.35882966372367      1.34230442256501      6.93797848214668
  C   6.02750299385116     -0.89558352838454      6.90688235235648
  C   5.29584507166227      1.14551356108576      7.94076548988340
  C   6.12690480674492      0.02935602383885      7.92608796659096
  H   3.70210555152645      2.20085502645135      6.93472312987479
  H   5.38498006880876      1.86201598557399      8.74657322972576
  O   6.86443179864510     -1.95865218462898      6.95929815855479
  H   6.85936645124115     -0.13898392053874      8.70391142028611
  H   2.96229206002356     -2.96952567507256      0.90354564804153
  H   4.60402298057094     -3.24310053574253      2.73324869276144
  H   5.58114580213213     -2.50173765867801      4.71278159062605
  H   0.82395000478209      0.81435409509002      1.89326096554533
  H   6.70130385697262     -2.56386425727561      6.23120525500259
