24
Coordinates from ORCA-job 839optt
  C   3.22481695925493     -0.60763069088843      2.87901331700444
  C   3.96089889809557     -1.78908158943905      2.66305767980229
  C   3.57062416325565      0.20090575050242      3.92131071367746
  C   4.64999320667799     -0.13377825285006      4.77650125008452
  C   5.37766316392200     -1.33471311623110      4.53619078800860
  C   5.00395596195967     -2.16418626339072      3.44722793039450
  H   2.40531322340021     -0.37269566482684      2.21389362329724
  F   3.59549752318571     -2.55994011104685      1.63022692022186
  H   3.02121961663703      1.11474940774976      4.10939567346728
  H   5.53765440493093     -3.08208008072287      3.23915875762022
  C   5.02032099623764      0.69088738875053      5.85792849055673
  C   6.06510613635273      0.35841871593943      6.67775831152791
  C   6.80284127582717     -0.84379223878656      6.44510839740021
  C   6.44787630589957     -1.66358645079405      5.38538032785260
  H   4.47722759681414      1.60766200421407      6.05570382249780
  H   7.00477473132247     -2.57631201965236      5.20575051753574
  C   6.43157564496809      1.24681041548747      7.80921938445310
  C   7.88912814062929     -1.17039162105940      7.31096499867348
  C   7.55222576624795      0.82343904229051      8.62934300507091
  C   8.23920076594123     -0.34292086782670      8.37183758138374
  O   5.82040063186256      2.28351492213973      8.03981405544069
  H   7.81891710157906      1.47171189482975      9.45323446474861
  H   8.44253004765019     -2.08253277107671      7.12751391299653
  H   9.06976773734814     -0.62449780331198      9.00677607628341
