24
Coordinates from ORCA-job 83optt
  C   1.94447420906086      1.08120160790661      1.88088323576125
  C   2.61597021382482     -0.12855301695801      1.82084214042839
  C   0.64823097547125      1.27878643519833      1.15585024593235
  C   0.21331128441003      0.25745424486592      0.27348071443428
  C   0.95258990377586     -0.93532407536069      0.20158553256976
  C   2.09938496132836     -1.13027084749043      0.97503688348649
  C   -0.98678833107028      0.39228650203058     -0.53755331300966
  C   -1.32106125294609     -0.77938865238308     -1.39746830897529
  C   -0.58471407602353     -1.92007314330833     -1.43629941954618
  C   0.56311738584588     -2.00105337333239     -0.62599138762183
  C   2.44535151214997      2.29709657207078      2.66403629392930
  C   3.86349878844073     -0.64952793437646      2.57749116697230
  O   -0.00700424042804      2.32706285159745      1.34138847007571
  O   -1.72776209707716      1.35553713486466     -0.58490927379253
  H   -2.21392566106380     -0.65515521651874     -1.99974321810915
  H   -0.86414504923811     -2.75137061387186     -2.06912166157819
  H   2.62793874114188     -2.07317984153089      0.93840727062658
  H   1.16938782984513     -2.89964483705393     -0.62807310250521
  O   3.59484996837856      2.37530308906579      3.06570176893766
  O   1.59568722704201      3.24361410407372      2.84612804979625
  H   0.74170675590229      3.01843955414352      2.25777897791384
  O   3.99856092006450     -1.84469300226337      2.63315234283046
  O   4.71764410387091      0.18545120468889      3.08427354741110
  H   4.36930592729393      1.13866125394192      3.04698304403229
