28
Coordinates from ORCA-job 841optt
  C   1.99602587605832     -0.58420180408660      1.68100936466863
  C   2.76854631727837     -1.74241561759958      1.55452903730027
  C   2.22234233000216      0.26897615803046      2.74124478307097
  C   3.74043272943501     -2.04137934487154      2.48197031744585
  C   3.97139058794779     -1.20138151476943      3.59451575647760
  C   3.19695304431899     -0.02444275073350      3.69317272333550
  H   1.23649366271467     -0.35428722222832      0.94574285697984
  H   1.65958166569551      1.18514610993581      2.86183568366248
  H   2.61026694203859     -2.40722863453624      0.71515329340949
  H   4.34163159672608     -2.92772149184882      2.34077931467079
  C   3.42010022287292      0.94098881685280      4.78634834218124
  C   4.98336289013376     -1.50077900301345      4.57127060689064
  C   5.17335769911646     -0.62455346558525      5.69392959604719
  C   4.43676748067158      0.57971806591610      5.79377415126898
  O   2.78808404872840      1.98105754943017      4.85976176751534
  C   5.79275962734969     -2.70544227619137      4.38954701696974
  C   4.62786043629727      1.44504602163040      6.86915066901028
  C   6.04973824315622     -0.93662741241199      6.75919245118376
  C   5.52113762323964      1.13463914223176      7.87339295104388
  C   6.22048024744449     -0.07427575429858      7.81782730287441
  H   4.04457594691223      2.35608293939401      6.89076260603557
  H   5.66458178918427      1.80956599132467      8.70663010206231
  H   6.57638418416971     -1.87844213803989      6.75630709863657
  H   6.89553956514213     -0.34394951128039      8.61984009321461
  C   7.11859766085586     -2.77480167724389      4.49456006189063
  H   5.25727591621183     -3.60375015118710      4.09845464046872
  H   7.71784274759908     -1.90401284526882      4.72966890002910
  H   7.64074891869880     -3.70632817955139      4.32119851165539
