36
Coordinates from ORCA-job 84optt
  C   1.24842846308580      2.33788292166835      0.77388673745676
  C   2.34166033526525      1.55536486746630      0.47322690652215
  C   -0.15009200064555      1.77724351058530      0.76055745784696
  C   -0.27847574138888      0.39755370469527      0.37189175025136
  C   0.87479998328472     -0.35073878319940      0.06554561330616
  C   2.16423424645799      0.22349514428324      0.12054691238340
  C   -1.56766366568241     -0.25944921033365      0.28520915239482
  C   -1.54030316443941     -1.68531649084062     -0.12584823647701
  C   -0.41173553638608     -2.39345970411152     -0.40465254303035
  C   0.81517831092756     -1.69697678336224     -0.30357353291628
  C   1.36215268062032      3.78882574105684      1.09497238946534
  H   3.33984602169674      1.97161729764407      0.50623262315079
  O   -1.06755579280757      2.52335464077892      1.07747422618389
  H   3.01970349323922     -0.39603759074198     -0.12204378096783
  O   -2.65694747190814      0.24877729013973      0.51135694383730
  H   -2.52315091075681     -2.13711031301621     -0.19507063564359
  C   -0.39131727885536     -3.85884952084371     -0.78543168151836
  H   1.74231121769434     -2.21602063636847     -0.52688948735606
  C   0.91632972793090      4.59181804840152     -0.14454228816446
  H   1.59601867209334      4.40722557755429     -0.97896211611074
  H   0.94309889303290      5.65632574745957      0.09042298377694
  H   -0.09642439754884      4.32126800102123     -0.43477154308579
  C   2.74452775443467      4.23232536155847      1.55586069766739
  H   0.61984131868732      3.98303732846771      1.87329311933282
  H   2.70282932456719      5.27147362025780      1.88211803615119
  H   3.47460776518221      4.17633189658644      0.74537268424780
  H   3.10818644798453      3.62984731404806      2.38955220309846
  C   0.17055164519780     -4.68800679870214      0.37425156371546
  H   1.15821002364821     -4.33993127489818      0.67996096383814
  H   0.25253863724431     -5.73754987422590      0.08944783260279
  H   -0.49270290552458     -4.61708286696136      1.23854436917165
  C   -1.75190530692741     -4.39274508891532     -1.21359125464758
  H   0.29615136667348     -3.95489791437728     -1.63286217320611
  H   -1.65448666224424     -5.42078913216629     -1.56243727996779
  H   -2.18418181907705     -3.79685571839337     -2.01812459518498
  H   -2.45200367475651     -4.39453031221549     -0.37581401812468
