24
Coordinates from ORCA-job 851optt
  C   -3.00304087772034      1.08628542558098      3.02175065287622
  C   -1.67844648656379      1.38216548944608      2.65417439518215
  C   -3.90309684730126      0.69785134626840      2.06430332552676
  C   -3.51658622586250      0.59017858575957      0.70589733658577
  C   -2.17192997415464      0.88976412389843      0.34287748746144
  C   -1.27531361248620      1.28279445874324      1.33318584928016
  H   -0.24791897257227      1.51722908671935      1.08317816520095
  C   -4.42023805960466      0.19957096618904     -0.29000093944095
  C   -1.77056761138417      0.78038266191174     -1.03884343256536
  C   -4.02788221200378      0.09134966809650     -1.67495525508636
  C   -2.63408287118290      0.40493081396344     -1.99727029573905
  O   -4.83718606634476     -0.25119828926411     -2.54234277088447
  H   -0.74012557215735      1.01268258297435     -1.28171303782271
  H   -2.34497720601175      0.31908201171044     -3.03629189149144
  C   -0.66039412597085      1.81238237425251      3.65455744710046
  O   0.47934837800410      2.07932381266244      3.38183880146817
  O   -1.15227740788825      1.87136675756418      4.89656240628771
  C   -0.22046439246017      2.27663509889584      5.89887487292272
  H   0.15831257751016      3.27347752649804      5.67909870904590
  H   0.61562349565209      1.58029043935582      5.93820021558694
  H   -0.77004762361164      2.27145305960721      6.83479226566387
  H   -5.44992634986140     -0.03407483342469     -0.04959455360243
  H   -4.92649746831142      0.46798216487918      2.33344721033238
  H   -3.29791448771220      1.16942466771197      4.05779303611113
