16
Coordinates from ORCA-job 852optt
  C   -2.30335150768093      1.61433990820571      0.10545548124198
  C   -3.49284663493034      1.15769050466686      0.65264718754495
  C   -1.21642317622359      0.68371738610611     -0.17004360232635
  C   -1.42897721458669     -0.71866020342716      0.16377168531363
  C   -2.63459295501509     -1.13243331701600      0.70959491703441
  C   -3.63883934522548     -0.19638371641098      0.94233948585546
  O   -0.14774520815835      1.07145911470245     -0.67983113155971
  H   -4.29896651945395      1.85105029060729      0.85388774127352
  H   -4.57424560123905     -0.53627947609242      1.36851358995432
  H   -2.79000565118050     -2.17508970516656      0.95402674380233
  N   -2.04000393361051      2.90233024747358     -0.20248916780483
  N   -0.37900839588257     -1.52860070937378     -0.09105610384194
  H   -2.75255824176007      3.60679350175706     -0.16408394667918
  H   -1.16689669950371      3.09551557899175     -0.66710590868841
  H   0.41268871750098     -1.12064873667729     -0.56260804020126
  H   -0.45544763305013     -2.52545066834663     -0.01373893091894
