24
Coordinates from ORCA-job 858optt
  C   2.16967928872831     -1.13681051535621      1.68610291385819
  C   3.01405658679696     -2.24568717135659      1.70124762948820
  C   2.25804286491979     -0.20475775418257      2.70211575945416
  C   3.92644203548828     -2.40749788001003      2.71782377393505
  C   4.01785746051060     -1.45976568492753      3.75672123634510
  C   3.16206473360167     -0.32580375268467      3.75816421061449
  H   1.44363998411650     -0.98041905075121      0.90052962086325
  F   1.43504318701327      0.83547089804975      2.63886619374027
  C   3.24224147202740      0.67259328280824      4.84968044810716
  C   4.96069864065439     -1.63754162901172      4.79591600533582
  C   5.08735938989608     -0.71861927340209      5.86024382705820
  C   4.25309908428998      0.41920045697481      5.90570128270990
  O   2.52631649816231      1.65494145889532      4.89927671033710
  C   4.37211796533783      1.32678850912380      6.95459036238095
  C   6.03404980426217     -0.90934926549038      6.89005594873870
  C   5.30440178669385      1.12226010731607      7.95378331246451
  C   6.13849680521913     -0.00264783752766      7.91770542011984
  H   3.71676789424327      2.18763402321671      6.96013876644937
  H   5.39190987662917      1.83135430733071      8.76621000933254
  H   6.67633336111410     -1.78099483886106      6.85738656319108
  H   6.86760189526245     -0.15733008879491      8.70232723093847
  H   2.94752242925949     -2.97772310147725      0.90747667771107
  H   4.58642149508542     -3.26522758476964      2.73362921816997
  H   5.60393546068750     -2.50856761511188      4.77063687865653
