26
Coordinates from ORCA-job 861optt
  C   2.13252517110962     -1.06535109514847      1.72443444937936
  C   2.97793218844574     -2.18322792412118      1.70130811636379
  C   2.23844046816384     -0.16068903715094      2.75592727921519
  C   3.90607304217572     -2.38381268211942      2.69963105609484
  C   4.02118210693593     -1.46441909598343      3.76061767954085
  C   3.16976580892711     -0.33481128251714      3.77875128865376
  H   1.40600221803505     -0.92315613718712      0.93285195739403
  H   1.60118674636614      0.71281066003953      2.80116223240464
  C   3.23987866820772      0.66921568228972      4.85284328729413
  C   4.96439613566735     -1.63428206554836      4.81373655372885
  C   5.08186320741552     -0.69684650462968      5.87741616446579
  C   4.24218819796773      0.43635086036642      5.90950919864177
  O   2.50624068339295      1.64653371342866      4.86733595985055
  C   4.35693852804653      1.35460000223648      6.95239244252909
  C   6.02721831098334     -0.87770111549232      6.90795178210348
  C   5.28627294678474      1.16489562492164      7.95399664491263
  C   6.12284753218039      0.04181002085433      7.92600060942270
  H   3.69635419377059      2.21145071295347      6.94543576931383
  H   5.37086986720389      1.88100513116101      8.76050398033987
  H   6.67214596885008     -1.74452020681450      6.88514163598552
  H   6.85208125395853     -0.10445701567641      8.71231388036135
  O   2.92028420342654     -3.10382920517897      0.70687316232265
  H   4.52430429134947     -3.26905421725213      2.61240569758639
  O   5.79521754351158     -2.69073083594192      4.85940943460027
  H   2.24035941805304     -2.86107728932788      0.07055058985106
  H   5.64772129907078     -3.27656669816134      4.11072914764348
