24
Coordinates from ORCA-job 862optt
  C   2.12109380418936     -1.03676199724860      1.72718650721625
  C   2.96229774733693     -2.15233067117752      1.71273122362336
  C   2.23562173080153     -0.13402823156633      2.76213242217126
  C   3.89323985373302     -2.37120529724418      2.69924981934539
  C   4.01650846647682     -1.45241314016741      3.76120014601237
  C   3.16898292177373     -0.32166246364777      3.77879056063506
  H   1.39910666633099     -0.89805880650903      0.93495113164439
  H   1.60410986219796      0.74313581490718      2.81120464145344
  C   3.24792624025107      0.67887187134509      4.86054442453301
  C   4.96311263157271     -1.62434246806874      4.81410968245224
  C   5.09098703994493     -0.69752226036006      5.88886105896923
  C   4.24917226122609      0.43881822702416      5.91935832763931
  O   2.52130876629511      1.65666089286919      4.87808798786734
  C   4.35323136680810      1.35984707606751      6.95801331907878
  C   6.02713711342064     -0.86354038452242      6.93121551127435
  C   5.27588564959377      1.17833619633203      7.96860429456829
  C   6.11339445212694      0.05895788898327      7.94806418184260
  H   3.68985343000333      2.21432797029156      6.94228843567238
  H   5.35191737674660      1.89776663547979      8.77281985878570
  H   6.68050983235434     -1.72350316123760      6.92765155991213
  H   6.83838069671922     -0.08632950220233      8.73820565814194
  Cl  2.82263894263479     -3.28621862666334      0.41377593888269
  H   4.52451987580427     -3.24555897234944      2.65397993007404
  Cl  5.98515327165768     -3.00172659033501      4.78334337820439
