26
Coordinates from ORCA-job 865optt
  C   2.34206468809130     -1.33458861938823      1.77322990095473
  C   3.21536991802886     -2.41286799011035      1.84283526075209
  C   2.35512313753628     -0.33845319884316      2.74930617899252
  C   4.10959793593496     -2.51156786227559      2.88389662534758
  C   4.14217761956722     -1.52024824423507      3.88332551485128
  C   3.25542939608684     -0.41095651358612      3.82500867721830
  O   1.50131676364102      0.69943249443945      2.66421086486825
  C   3.30336205941320      0.62533861357332      4.88397173704455
  C   5.06810015954777     -1.64288254440864      4.94613748094885
  C   5.15455603474632     -0.68864109019232      5.98426559349448
  C   4.29521837097714      0.42738399759043      5.96710522285412
  O   2.57742661502295      1.60266797585484      4.89084619675123
  C   4.37838801734172      1.37045059657190      6.99118327872268
  C   6.08234714276480     -0.83027983636896      7.03606417795558
  C   5.28633805857668      1.22605672016682      8.01631868386917
  C   6.14309515860531      0.11533474560128      8.03552115685145
  H   3.70797388744133      2.21894900737648      6.95638319085472
  H   5.36005481448886      1.95036678413654      8.81608523043748
  H   6.74561442728514     -1.68862267432802      7.05141156673696
  O   7.01204241697414      0.03569751613280      9.07523593251932
  H   3.18655447143020     -3.17312401209560      1.07331939550261
  H   4.79475916935275     -3.34670447552854      2.94827704783686
  H   5.72931566240543     -2.50069504131619      4.95817449300235
  H   1.63664549283961     -1.25605138545890      0.95362715228997
  H   0.95738406799297      0.60005001935901      1.87576231219090
  H   7.55080451390712     -0.75783498266719      8.99704712715187
