32
Coordinates from ORCA-job 872optt
  C   2.46992347237504     -1.44325556005371      1.75760127412892
  C   3.35800510029142     -2.52373326784756      1.85489050889032
  C   2.49029855097419     -0.45575868811640      2.72746830672529
  C   4.24799722607062     -2.59803351134925      2.91354362127300
  C   4.27059446371889     -1.60093950041724      3.89827514023423
  C   3.37190521887160     -0.51245278527408      3.79772763149106
  H   1.77122797751766     -1.37216180610878      0.93730389746350
  H   1.81256437801347      0.38630047441121      2.67081787350791
  C   3.36239540194925      0.55743158749400      4.81488587566134
  C   5.17538810857890     -1.66936931939678      4.98896421636895
  C   5.20633260560076     -0.67474277814450      5.99459831672130
  C   4.32366534440090      0.42363546317141      5.92615451390859
  O   2.59725665844270      1.50619758543770      4.74071000982620
  C   4.36250506939599      1.39711598276969      6.92664470488445
  C   6.11436385809315     -0.77052305920976      7.07366046479434
  C   5.24599502613956      1.29743610402353      7.97388034552315
  C   6.12977144084943      0.20403019768879      8.04956541922670
  H   3.67625453769683      2.23058665524779      6.85254181458994
  H   5.28753506474613      2.04272988882803      8.75665960319166
  H   6.78472464767601     -1.61751529264388      7.11205034356270
  O   6.95454583393443      0.20169778485757      9.12074602185312
  O   3.41198344275051     -3.53658703016776      0.95936879666221
  H   4.92494247981733     -3.44121493907237      2.96647398719837
  H   5.85902469627909     -2.50730132254438      5.05214238279054
  C   2.52800614392986     -3.50196997354836     -0.14076650365277
  H   2.73866215262971     -4.39329708877396     -0.72496430375082
  H   2.69874051699902     -2.61543959731729     -0.75665560529470
  H   1.48627433086578     -3.52148157474567      0.18892069538325
  C   7.87267194814497     -0.86243323110811      9.24359234491732
  H   7.35417836131578     -1.82112847038013      9.32720050244088
  H   8.43585326055804     -0.67458387261593     10.15328004018218
  H   8.55610268137290     -0.89135905509381      8.39091775929678
