20
Coordinates from ORCA-job 875optt
  C   -1.74947105529614      1.50468137102592      0.00000151334180
  C   -1.95684847527837      0.14644674287545      0.00000177189131
  C   -0.36925655052582      2.01982848516191     -0.00000073679669
  C   0.70404866580159      1.04007209813337     -0.00000139301426
  C   0.43986948432644     -0.28850931876008     -0.00000166191352
  C   -0.89767477878199     -0.77600704784980     -0.00000034626776
  H   -2.97176557545829     -0.22925124103132      0.00000385539305
  C   -1.10562900584753     -2.21336619717628     -0.00000045199465
  C   -2.81840468175466      2.49684196783788      0.00000335530216
  O   -0.13043480780900      3.22917363205396      0.00000109755426
  H   1.71372401801989      1.42884125569882     -0.00000194998392
  H   1.24996015353097     -1.00849871287125     -0.00000273285435
  C   -4.12576335660492      2.24118945359727     -0.00000409815145
  H   -2.47205447640644      3.52317393425970      0.00001048750156
  H   -4.52888537830226      1.23592773244262     -0.00001319041147
  H   -4.84437984364705      3.04928308305128     -0.00000194385392
  C   -2.27953463781390     -2.85123237907661      0.00000228091493
  H   -0.19851702908293     -2.80951842417837     -0.00000295263595
  H   -3.22796676277979     -2.33049818445069      0.00000520837476
  H   -2.31901590628978     -3.93158825074379      0.00000188760411
