28
Coordinates from ORCA-job 876optt
  C   2.52015743876983     -1.38570295423481      1.81133490077539
  C   3.64893720257947     -2.19232066383064      1.63843802076073
  C   2.40791803424618     -0.61027243364888      2.94704171718939
  C   4.63204925131104     -2.23799878635136      2.60008230193176
  C   4.52679165807835     -1.47803964636265      3.78617658592696
  C   3.39738461591070     -0.63959902782928      3.92756486077563
  C   3.25369794255583      0.25451243137283      5.09389000074300
  C   5.52644277969394     -1.52335794933239      4.81611514292265
  C   5.45694041670050     -0.63039784341772      5.93664569793707
  C   4.35747552706191      0.25068389263608      6.07424288965885
  O   2.27812775257358      0.97199891571086      5.23170100742700
  C   4.27892772943550      1.12318240328358      7.15711833807048
  C   6.45202751687264     -0.59542804638355      6.93963329028635
  C   5.27411796957630      1.15018289670493      8.11284666256230
  C   6.36282141296847      0.28104737449954      7.99652103434447
  H   3.41502539778605      1.77158970459015      7.21986592961226
  H   5.21024650532996      1.83362075851308      8.94908789204496
  H   7.29304974693108     -1.26939613694242      6.86934253048663
  H   7.14336405198336      0.29154170649139      8.74631640942003
  H   3.75868159865124     -2.77936141521677      0.73567209939282
  H   5.51574917488508     -2.83934872880932      2.43786037778740
  S   6.86215471546442     -2.66510133689592      4.69812382632746
  H   1.56198909454917      0.04569705087233      3.10471559091065
  H   1.75023694102255     -1.35751320457942      1.05182964881670
  C   5.97302904525860     -4.23670303126868      4.87755274617922
  H   6.72217609198577     -5.02026325461906      4.77946553391719
  H   5.21754631462616     -4.35526742133111      4.10465258948825
  H   5.51474407319218     -4.29201525362078      5.86209237430423
