24
Coordinates from ORCA-job 878optt
  C   2.19837030167477     -1.16468840191742      1.67962950083100
  C   3.04353156192364     -2.27077921796001      1.70873623185892
  C   2.25277293704007     -0.20903573986639      2.68422778849108
  C   3.94281423321980     -2.41833504434722      2.73599640808388
  C   4.01581645128643     -1.46061320372442      3.76620963431506
  C   3.15181254681407     -0.32819388117946      3.75441401144448
  H   1.48825760085623     -1.03243629541415      0.87568701266166
  Cl  1.15435591608449      1.11113054706418      2.51417188594212
  C   3.23960293771799      0.65721520038655      4.86449600486221
  C   4.95962705504565     -1.64208330434071      4.80414023742787
  C   5.09471561062395     -0.72777860013296      5.86834498324316
  C   4.25959148365126      0.40730531338248      5.91278967632782
  O   2.51976258328751      1.63487615160957      4.94156587442785
  C   4.38318432950546      1.31831953539835      6.95905220087420
  C   6.04608711400273     -0.91760273931965      6.89412487817309
  C   5.32065091848214      1.11725039938806      7.95368958307642
  C   6.15503500928324     -0.00797175188170      7.91818640699803
  H   3.72756173364780      2.17870058895963      6.96663911532600
  H   5.41219705103032      1.82926580573460      8.76309152100865
  H   6.68765844148219     -1.78970518998589      6.86021038947395
  H   6.88732244433330     -0.15951642187592      8.70042751966769
  H   2.98693134744904     -3.00727045218986      0.91823909863536
  H   4.60901299433365     -3.27101686954915      2.76905602606808
  H   5.59943739722424     -2.51552642823851      4.77320401078133
