28
Coordinates from ORCA-job 87optt
  C   -0.75000298233767     -0.19924852542839     -0.03022368231008
  C   -0.57294193791040     -1.53094884127487     -0.22887944489745
  C   0.38326475817553      0.64927802470756      0.15613100185431
  C   1.66166561888987      0.17997446572311      0.14780304214911
  C   1.91810375462569     -1.21660718387386     -0.05825593602819
  C   0.79613424180399     -2.13559546530157     -0.25463796446608
  C   3.19480089849320     -1.68594251167479     -0.09184524288163
  C   4.32610205802859     -0.83895387069887      0.09869302039441
  C   4.16104181721869      0.49173702766874      0.34563355541210
  C   2.78295785638008      1.10253772826730      0.33667396064659
  N   5.12970713599844      1.42571874870442      0.57061032285114
  O   2.67440834787401      2.30543462421389      0.47533049142143
  H   -1.74359894563809      0.21918432175405     -0.01256580665276
  N   -1.53902059102279     -2.48705746945282     -0.42458327205011
  O   0.91137965294702     -3.33756282222779     -0.43341144140298
  H   5.31217568164345     -1.27111118831855     -0.00572741298643
  H   0.22498887877470      1.70979213434811      0.31019863933236
  H   3.35190239084107     -2.74160125640978     -0.27712312267318
  C   6.47756268594374      1.28280012553675      0.89956373756239
  H   4.80703537315773      2.38667160624093      0.51203017542843
  O   6.83497686657180      0.08480781408483      1.38655930518955
  O   7.25380902112762      2.17809488497679      0.78066088701669
  C   -2.90424809157899     -2.28181680619635     -0.45255577994282
  H   -1.13900803861828     -3.41110239501622     -0.55029940350013
  O   -3.62755093674455     -3.39726485832768     -0.66400050746466
  O   -3.43228345231251     -1.22069285668367     -0.30476936054368
  H   6.06548023927956     -0.43692923865713      1.64811928664251
  H   -3.08451230161158     -4.18533621668412     -0.77212904810086
