19
Coordinates from ORCA-job 881optt
  C   1.27925232060277     -0.03215709602441      1.98316160421372
  C   1.20636209731186     -0.29317317440940      0.61360738094434
  C   0.19447918374288      0.48928509612098      2.66182071534261
  C   -0.98384548170030      0.75730168344483      1.97295804168020
  C   -1.08430388772084      0.50254319555263      0.58780886241347
  C   0.04281205499130     -0.03094408898354     -0.07926617822039
  H   2.06233699835116     -0.70250059568337      0.08905897748404
  O   -0.08492068929591     -0.26405323240575     -1.40941586726673
  H   2.19946765933229     -0.24379326422688      2.51169824113411
  H   0.23214333066615      0.69783086087814      3.72199297609139
  C   -2.14919040358345      1.31519556286654      2.69489518426399
  C   -2.29133337397014      0.77885742542695     -0.10423424379226
  C   -3.34287434318597      1.56937072376896      1.91481139301009
  C   -3.39402700865659      1.30462264757017      0.56734605370901
  H   -4.19019395413465      1.97757531079043      2.44962905757568
  H   -2.34245482546548      0.57446309366037     -1.16415727959828
  H   -4.30172695654731      1.50537434407920      0.01283368314198
  O   -2.10494507874166      1.55099578430158      3.90106077768978
  H   0.73499235800387     -0.62591427672743     -1.76003937981680
