28
Coordinates from ORCA-job 883optt
  C   2.28910457977561     -1.25830396083715      1.85112842347490
  C   3.10772006712731     -2.40332852956330      1.91395415036034
  C   2.39776209774943     -0.28562602312207      2.81219134649066
  C   4.02550822040384     -2.52542563079442      2.94376931378735
  C   4.15619890503632     -1.52748301751653      3.92921949733680
  C   3.31448406357212     -0.39602525593509      3.86161745552908
  H   1.77258436690651      0.59736807824492      2.78621252174233
  C   3.36940156316500      0.67048724507436      4.86517031715491
  C   5.12077503619239     -1.62892633898690      4.98304544037844
  C   5.15344551336997     -0.66158361342082      6.03770270719688
  C   4.31401262911444      0.47323319423727      5.98157790051517
  O   2.66166114193932      1.66683229290290      4.79486773612562
  C   4.36403637242142      1.43511125936279      6.99063227814225
  C   6.01052524064828     -0.79410863058689      7.15277534285757
  C   5.21911332247506      1.29274173315445      8.06248465435304
  C   6.04068342857989      0.16275536998905      8.14035601446605
  H   3.70638058494803      2.28953061971241      6.89853814679039
  H   5.25066951282364      2.04171817102840      8.84231178324232
  H   6.63727119366027     -1.66850002194689      7.26901859146465
  H   6.70101186985403      0.03305802210499      8.98822747184995
  N   2.94082000702815     -3.41551477851437      0.98417028275187
  H   4.60571521060988     -3.43852577049766      2.99419877902579
  N   5.99861946100401     -2.68110517925020      4.99841127187900
  H   1.56829195131398     -1.16447734556128      1.04806547627878
  H   2.50574907446272     -3.15244383787303      0.11521099335221
  H   3.71257103147725     -4.05093530253946      0.86569855408145
  H   6.16741261169196     -3.15054441331239      4.12497586305410
  H   6.82597094264907     -2.58295833555308      5.56184768631803
