16
Coordinates from ORCA-job 885optt
  C   -0.38729975154375      2.78178793041314      0.04039772892491
  C   -1.54853755114424      2.05819822386455      0.05220573010646
  C   0.90891499679207      2.14644450575748     -0.04370808734928
  C   0.91099063928726      0.69746320751613     -0.11422196978516
  C   -0.24693910372652     -0.01183408289449     -0.10180795030766
  C   -1.49265999509784      0.65406045151513     -0.01875212604443
  O   -2.56987152364381     -0.14047954590652     -0.01395999386002
  O   1.95973876625218      2.80683694929422     -0.05419025624870
  H   1.87486340402394      0.20966980578163     -0.17736908334195
  H   -0.25795604479535     -1.09284140641375     -0.15432028638691
  C   -3.85445604503109      0.45093413549074      0.06603758231259
  H   -3.96414692949546      1.01665912697519      0.99333262499219
  H   -4.56347554229378     -0.37113569143354      0.05345578719166
  H   -4.03476412404993      1.10479424972751     -0.78949721129247
  H   -0.39844758196332      3.86249710308243      0.09412846124587
  H   -2.50017361357036      2.56604503723011      0.11620904984292
