26
Coordinates from ORCA-job 886optt
  C   3.24903778622493     -0.68772517242832      2.83692349885411
  C   3.98483013983895     -1.86569618019517      2.61835771709319
  C   3.57317652831889      0.14450293033395      3.87941884828925
  C   4.63945489326218     -0.15304895050159      4.74884065908665
  C   5.38063867018102     -1.34158577686540      4.52903442216274
  C   5.02565775454356     -2.18225860896450      3.44702586125588
  H   2.42489903734094     -0.43649511423968      2.18291227494216
  H   3.72524266536955     -2.51832692789117      1.79523374338784
  H   2.98192036367872      1.04018205854565      4.01392232682740
  H   5.59955932171821     -3.08723144717925      3.28910680770558
  C   5.00053193264758      0.71045846253336      5.85561860479214
  C   6.07318447061269      0.36011548835545      6.69123491651122
  C   6.80130267018345     -0.84816968698616      6.44041206582755
  C   6.45336445442683     -1.67139329828422      5.38076157156575
  N   4.31018017962502      1.83890718342103      6.07812678132888
  H   7.01190495296883     -2.58204898742700      5.20206156835959
  C   6.46194772791036      1.20965686409030      7.81574503236947
  C   7.88629916858627     -1.20492128832256      7.28027067595866
  C   7.58480112908496      0.76530508463694      8.62006929496509
  C   8.26037229440494     -0.39834411190028      8.35077576697288
  O   5.88490830025563      2.27191729296291      8.10478488705025
  H   7.85799496124698      1.40728642084164      9.44678461436075
  H   8.42106644711715     -2.12218482675778      7.07071588113182
  H   9.09349300686422     -0.69495281664379      8.97570137312895
  H   3.54782700379538      2.11300747946212      5.49041028437017
  H   4.60599413979259      2.40923392940355      6.86662052170192
