16
Coordinates from ORCA-job 890optt
  C   -1.48976959680918      1.53945462490072     -0.00000133114699
  C   -1.90730218624246      0.23305823066626     -0.00000081368098
  C   -0.08743702672941      1.89680741446541     -0.00000308886148
  C   0.86918827872879      0.81108554471577     -0.00000047782785
  C   0.44030150970730     -0.49023726205004     -0.00000004853105
  C   -0.92569408421385     -0.78738724784559     -0.00000051615274
  C   -3.34815883781434     -0.06830395358412      0.00000028258073
  H   -1.23467908553351     -1.82378158886637      0.00000079611225
  H   -2.19984607838882      2.35772755820226     -0.00000067910507
  O   0.27916652914500      3.08344103691508      0.00000279413890
  H   1.91812929607264      1.07602955682209      0.00000063991236
  H   1.15677337608600     -1.30137277793392      0.00000120326585
  C   -3.90571480963915     -1.27299597937177     -0.00000012930700
  H   -3.99230576188564      0.80511003167150      0.00000176201120
  H   -3.32679871678685     -2.18757584768647     -0.00000154451930
  H   -4.98142280569649     -1.38225934102082      0.00000115111118
