42
Coordinates from ORCA-job 891optt
  C   1.88087292299026     -1.11698603456752      1.76570726504327
  C   2.91516893705779     -2.02039953630814      1.45433806418952
  C   1.92573077570390     -0.35198751864498      2.91165479051921
  C   3.97905027444653     -2.12527542779691      2.32276556666475
  C   4.05097819876331     -1.35467053873053      3.50397525100303
  C   3.00219489132034     -0.45849070374167      3.79087730790618
  H   1.03660280176466     -1.02174346552370      1.09339868899855
  H   1.13426461507871      0.34448956082906      3.15621787067842
  C   3.04185091813926      0.36379777676391      5.01235415311434
  C   5.15073620234040     -1.47487587174265      4.38756288834476
  C   5.25517675908278     -0.71551802411968      5.57788732275303
  C   4.22083279368689      0.20165863786736      5.89474482924186
  O   2.14321265584783      1.14336042833917      5.28736835992033
  C   4.28880231085242      0.97504371096720      7.04907296283592
  C   6.36965770050964     -0.83894480757444      6.46310538422511
  C   5.37158153000296      0.85432752241782      7.89305986023324
  C   6.39882877036863     -0.04730116193135      7.59315323741671
  H   3.47863960427776      1.66208304336846      7.25314004261211
  H   5.43422069947599      1.45631732699816      8.79015552790566
  C   7.46563114342181     -1.84930543517624      6.18541516903611
  H   7.23766902665573     -0.11665979572368      8.27229840186522
  H   4.78702480710172     -2.81508329492396      2.10239265594860
  H   5.92875102511043     -2.17599630648282      4.12025077431363
  C   2.85063523560388     -2.85248900822633      0.19343115390196
  C   2.85064953731768     -1.96780304065470     -1.05453342707294
  H   1.95940013092984     -1.33787851505077     -1.08189969167069
  H   2.85359399090614     -2.58169910178617     -1.95639380897969
  H   3.72418713937329     -1.31585348492550     -1.07601267407564
  C   1.63263202730415     -3.77803723525678      0.20203054202106
  H   3.74947399773322     -3.47431009248319      0.16934989166994
  H   1.62696303672744     -4.40840266507068     -0.68835521509963
  H   0.70692600949747     -3.19929648039485      0.20730126964571
  H   1.63218525254206     -4.42157903877606      1.08203994827694
  C   6.98460940619950     -3.26168302450817      6.54377308226487
  H   6.79595370014033     -3.32323525020909      7.61750464555401
  H   7.74389758648115     -4.00253143354223      6.28785434890770
  H   6.05934216672481     -3.52063944618085      6.02911848829789
  C   8.77750708019944     -1.55410199068727      6.90789022899972
  H   7.68175571161079     -1.82010669285801      5.11428235314601
  H   9.55012522310241     -2.23874818099064      6.55679194912200
  H   8.68094114590072     -1.70017725690385      7.98520033196519
  H   9.11675225770563     -0.53349814605763      6.72794020835574
