21
Coordinates from ORCA-job 892optt
  C   1.24856999414156     -0.11960485720119      1.96894933557620
  C   1.19848812728150     -0.38289481088834      0.59150928984297
  C   0.16685631631624      0.43483135948280      2.59743607209759
  C   -1.00261085118756      0.74374169034958      1.86064765404154
  C   -1.04452936899534      0.47210526291648      0.46225346912779
  C   0.07705408163259     -0.09881837859362     -0.16914982325010
  H   2.06221120579169     -0.82179856915820      0.10671788115242
  C   0.06953704118603     -0.39869161362105     -1.64309497553101
  H   2.14428286814630     -0.35704474680458      2.52726145106643
  H   0.18562104843158      0.64581209146372      3.65936859661680
  C   -2.11876694297009      1.31347711348892      2.48634117428448
  C   -2.24721609380600      0.79479500721014     -0.26650601065226
  C   -3.31908483413286      1.63845545143964      1.76294540677870
  C   -3.32118168274470      1.34209914449893      0.33227019063683
  O   -4.29684052282110      2.14323369651385      2.33006128861738
  H   -2.27583592161580      0.58566486398032     -1.32803983061552
  H   -4.22361997056527      1.58446978354808     -0.21352001336392
  H   -2.10853534370340      1.52843436288912      3.54777930781338
  H   -0.72322872115338     -1.10331717277166     -1.90065869829929
  H   1.01898752041739     -0.83358367343263     -1.94907341839852
  H   -0.09245794964934      0.50625399468967     -2.23141834754190
