30
Coordinates from ORCA-job 893optt
  C   -1.66571652162472      1.08772144388152     -0.22806421134241
  C   -1.83158752029000     -0.11083722415162      0.42869976524560
  C   -0.32413871243223      1.43988744761070     -0.69361860682243
  C   0.75953205271348      0.51388987515858     -0.42803690814411
  C   0.55973240586746     -0.66698871839436      0.22505026488874
  C   -0.75534626671002     -0.96957559100126      0.65481189536471
  H   -2.81215787305543     -0.40347558977782      0.78170850367932
  H   -0.92678963967442     -1.90080351138455      1.18343189685629
  C   -2.76830597675527      2.07814633085680     -0.46937999114430
  O   -0.11792789658316      2.49961490663329     -1.30484625593619
  H   1.73421966825957      0.82186899903573     -0.78337999865676
  C   1.65527842720593     -1.67933281488945      0.48684562050693
  C   -2.62233016706391      3.25830170461223      0.50299982564736
  H   -2.73776822150379      2.91396048425314      1.53317625661085
  H   -3.39384269460039      4.00362843187743      0.30396239447719
  H   -1.64719940694327      3.72989046353454      0.39489084482654
  C   -4.16479774643482      1.47535326049974     -0.37294295508739
  H   -2.61333724715123      2.47193615572198     -1.47719702361030
  H   -4.90764729663360      2.21688338599364     -0.66768511090865
  H   -4.39624309977015      1.17271444456832      0.65083017874345
  H   -4.27641159856359      0.60482065079641     -1.02103230514956
  C   1.45879386504104     -2.90497959762499     -0.41225980377164
  H   0.47201090050073     -3.34936954708297     -0.27820930626019
  H   2.20907008949364     -3.66580563613084     -0.19243679266925
  H   1.55851216906278     -2.61689928131859     -1.46075686242973
  C   3.06002660898030     -1.11607342263165      0.31486212873674
  H   1.54266747228646     -2.00468532252953      1.52666916623627
  H   3.79897641982292     -1.86196524231204      0.60837120841582
  H   3.21378462714934     -0.22326943051497      0.92191411953950
  H   3.25151317940636     -0.85659705528942     -0.72837793784239
