22
Coordinates from ORCA-job 895optt
  C   1.21202100973675      0.00853022489983      1.90767418335203
  C   1.20831313886336     -0.34287875832885      0.54664809243362
  C   0.09303077056708      0.55965782174214      2.47559938117374
  C   -1.07295203238859      0.78008750569486      1.70142676789301
  C   -1.07121948492553      0.42195936948497      0.32402412825239
  C   0.08539477648243     -0.13874297037414     -0.22847032442793
  H   2.09500779478542     -0.77782593463710      0.10439993316816
  H   0.08931178522942     -0.41212474690458     -1.27661323658851
  H   2.09961022380657     -0.15774588847746      2.50313760328356
  H   0.08173640429771      0.83510417714532      3.52302337366924
  C   -2.23203866857153      1.34027218007902      2.24199529310752
  C   -2.25182488083211      0.64371143696873     -0.45812187587731
  C   -3.42672528920754      1.57096201174699      1.46502555347655
  C   -3.39537098549609      1.18379480645462      0.03598954150956
  O   -4.41619595807116      2.07443720459437      2.00514919118163
  H   -2.21448720666070      0.35689542284866     -1.50433068915599
  C   -4.54067809639810      1.35982023280788     -0.85675350268519
  H   -2.27923945290499      1.62928231414814      3.28467914822036
  C   -5.74341025898990      1.85385241087330     -0.56948135600283
  H   -4.34998598820337      1.03287053693311     -1.87540752820876
  H   -6.00390203157447      2.19715250243676      0.41924665243939
  H   -6.49123556954465      1.91690813986343     -1.34964033021427
