18
Coordinates from ORCA-job 896optt
  C   -1.85511188839606      1.79871837034834      0.25549896487814
  C   -2.55096462755664      1.49780573146682      1.39748337257575
  C   -1.52837286757143      0.75206590440765     -0.70107923139833
  C   -2.00989704938769     -0.58276379068939     -0.40834048604600
  C   -2.72987773170184     -0.84117527649970      0.72286136786631
  C   -3.00315974750884      0.19303417265098      1.63345416837521
  O   -0.84798438020342      0.98449432734828     -1.71176507530152
  H   -3.08282087004965     -1.84255550339712      0.93114234751425
  H   -2.74285771487734      2.27902761309394      2.12186022108171
  C   -1.33597116515236      3.19901747023323      0.07868771032723
  H   -3.56288020883656     -0.02000354177123      2.53427974652955
  H   -1.75749549543862     -1.35443795682253     -1.12368395212770
  O   -0.67860319453149      3.70867446423315      0.94020925450522
  O   -1.64673163984975      3.88142776257939     -1.02280577957257
  C   -2.54910868057701      3.37445814426618     -2.00236007762991
  H   -2.98850856786034      4.24672828101035     -2.47840505487138
  H   -3.33987356509099      2.77911854050708     -1.54391106179283
  H   -2.00906060540991      2.77421528703454     -2.73045643491311
