16
Coordinates from ORCA-job 897optt
  C   -1.45257889168008      1.32021743811305      0.00000336894144
  C   -1.70670250799127     -0.04317244264679      0.00000266283809
  C   -0.07079444106068      1.82644396644142      0.00000990019035
  C   0.97600676270650      0.82866012352891     -0.00000060043987
  C   0.69238926331116     -0.50389221871725     -0.00000091430263
  C   -0.64729607204202     -0.94211898210472      0.00000254094086
  H   -2.72049522071461     -0.41662392553388      0.00000153189888
  H   -0.86004917585292     -2.00297236007908      0.00000120262955
  O   -2.38051187204391      2.26848675315305      0.00000185809198
  O   0.16322761788927      3.03794547995582     -0.00000280619525
  H   1.99102049755145      1.20363607207123     -0.00000500575670
  H   1.48992300939269     -1.23506903738234     -0.00000462444243
  C   -3.74119616646941      1.88117822132829     -0.00000162258755
  H   -4.31519597266372      2.80259740275698     -0.00000141733244
  H   -3.97813029395129      1.29852035976721      0.89300427994952
  H   -3.97812653638112      1.29852314934809     -0.89301035442380
