28
Coordinates from ORCA-job 8optt
  C   -1.01782295457991     -0.99717212071523     -0.61920145368499
  C   -0.17996261840222     -2.02553044836245     -0.41658490904294
  C   -0.59459526318009      0.37800457522600     -0.44554409021008
  C   0.66526343730379      0.67670169737690     -0.07159976792764
  C   1.62787093972344     -0.37534193481201      0.16768711359896
  C   1.21861610115984     -1.80145122841247     -0.00794610513910
  C   2.88313073036895     -0.07950497086006      0.55589249853934
  C   3.33000899490678      1.29446744813926      0.75189871237509
  C   2.47355616565390      2.31456608475503      0.53376174628247
  C   1.08342604635181      2.09699977883307      0.11314344006841
  O   0.32050971037157      3.02345996971227     -0.07592470830911
  H   -2.04148749216983     -1.18274664502739     -0.92032771400120
  H   -0.48428365100800     -3.05624053073038     -0.54224990027219
  O   1.98765533798499     -2.72312022498026      0.17066889698512
  H   -1.29476083947787      1.18696176874166     -0.61402475157054
  H   3.56827895672068     -0.89624381712221      0.74874546570256
  C   4.72491883596105      1.52895113686867      1.18573867086334
  C   5.03262117063715      2.57770118919166      2.05366334075435
  C   5.75850594563481      0.71284178509372      0.72393959967185
  C   7.06968305668516      0.95123088631958      1.10662971468020
  C   6.34196305071659      2.80951308324798      2.44286478171016
  C   7.36482715234945      1.99888798584161      1.96779320572131
  H   4.23578059353473      3.19780713731286      2.44433860232330
  H   6.56374821045580      3.61977542216863      3.12489257567543
  H   7.86182260391924      0.31734818138741      0.73048770267107
  H   8.38716897925648      2.17980856422755      2.27255037497636
  H   5.54167798898257     -0.09978882603799      0.04194521485137
  H   2.77882881013908      3.34795405261653      0.63773174270708
