26
Coordinates from ORCA-job 909optt
  C   1.41896257407048     -0.14399985986658      1.69229857709019
  C   1.19570683667571     -0.36553221238970      0.30454670070050
  C   0.36790607284940      0.39471033662939      2.45033541662865
  C   -0.84747797370539      0.70341732769817      1.86760234186210
  C   -1.06968882498551      0.48486675429705      0.48626309427874
  C   -0.00681011556331     -0.05908437492290     -0.26845400390902
  H   1.98005036990491     -0.77975053412103     -0.31117149927127
  H   -0.15414201297150     -0.23580818277658     -1.32756661958460
  N   2.61959632777373     -0.44789096954364      2.26332907698378
  H   0.46799964522741      0.58576798593931      3.50876378206782
  C   -1.93090756324836      1.27101457251125      2.70516799112374
  C   -2.31485981565196      0.80658438186635     -0.08564448834254
  C   -3.17646042645679      1.57142246713324      2.03384943510744
  C   -3.34695903444385      1.34288617982177      0.69109747917976
  H   -3.96665462946167      1.98586515364444      2.64589733141686
  H   -2.46696330168703      0.63288201981381     -1.14388815476545
  H   -4.29292467392531      1.58014919708555      0.22095272040042
  O   -1.77215862803016      1.47407580571584      3.90973925303408
  C   2.81962970796613     -0.21752594578266      3.67906959238729
  H   2.68424871092907      0.83724633517562      3.93188782867714
  H   3.83159857981008     -0.50671365629261      3.94715062355688
  H   2.12061690252544     -0.80373781251745      4.28206888373708
  C   3.68139843129163     -1.02741145445907      1.46974829137553
  H   4.54410033948054     -1.20330966002829      2.10554369067527
  H   3.98690330656026     -0.36003634051259      0.65884895083157
  H   3.38018919506601     -1.98355751411869      1.03174370475797
