24
Coordinates from ORCA-job 90optt
  C   -1.61056720547937      0.68135948855061      0.00004253654792
  C   -1.79180841645257     -0.65338416397926      0.00005632075244
  C   -0.30129614796697      1.29014094623157      0.00012539120525
  C   0.82320639732788      0.54236535523663      0.00014329126182
  C   0.73085532584026     -0.89699668048151      0.00016761528824
  C   -0.60538998521776     -1.55028081438214      0.00033235784083
  C   1.85535712834830     -1.64477323535485      0.00007989344424
  C   3.16462868708927     -1.03599269152802     -0.00000636422641
  C   3.34587027609742      0.29875094758928     -0.00000814428020
  C   2.15945219876041      1.19564828359085      0.00008975906540
  H   4.02960618906108     -1.68962422549076     -0.00006904525531
  C   4.68066215529689      0.96221418731815     -0.00010306422931
  O   2.29335510441265      2.40339182178162      0.00005712946973
  H   1.76291354995685     -2.72410798583199      0.00009934772870
  H   -2.47554482522769      1.33499083405561     -0.00006265704660
  H   -0.20885287224326      2.36947576583431      0.00008246079979
  C   -3.12660057935066     -1.31684693180561     -0.00010634284667
  O   -0.73929126830056     -2.75802436434442     -0.00010514734206
  H   5.48497407681918      0.22923438796636     -0.00016887068358
  H   4.77901972345828      1.61056675694992      0.87227273591508
  H   4.77888969833427      1.61058065457476     -0.87248318914859
  H   -3.93091212426440     -0.58386636407491     -0.00027025177560
  H   -3.22502421950127     -1.96515428439950      0.87229530070887
  H   -3.22476286679827     -1.96525768800667     -0.87246106319399
