22
Coordinates from ORCA-job 910optt
  C   -2.00702146265016      2.31063065711616     -1.10378328888775
  C   -1.31654406804891      3.53018141186906     -0.61568618523877
  C   -2.42169516025546      1.33304109650630      0.00676251453467
  C   -2.45940052755495      1.84635176760184      1.39297153229755
  C   -1.84831542009370      2.98185901206897      1.73453547817328
  C   -1.09861791538512      3.78581581619082      0.75616052656537
  O   -2.72657020600318      0.20309098942236     -0.26787091112254
  H   -1.80417490269500      3.32225761752174      2.76154914420450
  N   -1.24420001860090      1.68344554168823     -2.16578749390030
  H   -2.93574996072179      1.20655135458351      2.12479178204146
  C   0.00239641670272      1.10147640443421     -1.93593519737280
  O   0.37713119842178      0.14976157115620     -2.55111511370883
  O   0.74696431287210      1.66868597119212     -0.96326299664699
  H   0.79864936863764      2.64235091644720     -0.97989770370029
  H   -2.95749578711156      2.62955528041866     -1.55688183301326
  H   -1.78893769667702      1.09203979478998     -2.77756116514116
  N   -0.25716625367881      4.66645058655671      1.22886874548190
  C   0.71570291251770      5.17431261286411      0.36411846728283
  O   1.24043582538573      4.57080354779608     -0.54007208631843
  O   1.09734997961879      6.41124428112953      0.67781996854035
  H   0.61582274121609      6.69378771305725      1.46649479211322
  H   -0.91910337589595      4.19725605558885     -1.36694897618400
