26
Coordinates from ORCA-job 913optt
  C   1.34335368279350      0.36727648742258      2.00514671516478
  C   1.27141413474775     -0.20424572603795      0.73475486495297
  C   0.21747284619338      0.91176190885843      2.60868739521993
  C   -1.00913923110994      0.96918933882850      1.85456105052624
  C   -1.06561556752474      0.33223185258375      0.57540540765996
  C   0.07704116112102     -0.24968273309972      0.03713587998974
  H   2.16239709250417     -0.64398507919127      0.30547253472449
  H   0.02723125241877     -0.71744922515134     -0.93790433006385
  H   2.28224547004203      0.34029157391331      2.53864190326627
  C   -2.11315291945647      1.70070982988040      2.28597448271285
  C   -2.30283398040218      0.35617354555647     -0.16386361660129
  C   -3.34622434796212      1.75633120928981      1.53872425439379
  C   -3.38831938623319      1.01112727681172      0.28207539301298
  O   -4.31497134419810      2.40858251416586      1.94469009249311
  H   -2.32511757365494     -0.16822496394354     -1.11254899262546
  H   -4.31781101004823      1.03717395604962     -0.27135232921803
  H   -2.07416497774072      2.29234061116965      3.19027279360049
  H   1.40247200887740      2.35568256881966      5.34899040533205
  C   1.55108951588033      1.73560690291927      4.46509341446753
  H   2.16192038601734      2.28843044065207      3.75347499236103
  H   2.09065404957914      0.82934401566566      4.77373406893235
  H   -0.99075787234533      1.72003342282536      5.56288325670861
  N   0.25527008052124      1.44240146377275      3.89087425620303
  C   -0.67377627478738      0.92149611691819      4.89025902062952
  H   -0.18575671095707      0.13943661737550      5.48494677164326
  H   -1.55085048427566      0.49135607394522      4.41828031451354
