22
Coordinates from ORCA-job 924optt
  C   1.31220156449257     -0.04401477588104      1.96175797832847
  C   1.26370375994223     -0.31137383006295      0.57810691246722
  C   0.21807339419024      0.47025863892656      2.61553289840640
  C   -0.96297696801421      0.73815217715556      1.92028957869898
  C   -1.02515022146992      0.47599762891677      0.53992737293105
  C   0.10209957581532     -0.05150725564195     -0.12048884921055
  S   2.73124197782361     -0.96501088438209     -0.12974115340885
  H   0.03061102643913     -0.24473466344495     -1.18227757860465
  H   2.22500376760497     -0.25022654312889      2.50735376374092
  H   0.24716304567699      0.67743817858375      3.67728426622396
  C   -2.13434004345446      1.28951182953803      2.62493345324131
  C   -2.23148542805559      0.74966217053496     -0.16959118375136
  C   -3.31979596435248      1.53863682500393      1.82668790563877
  C   -3.34745227304918      1.27086091214045      0.47672091637658
  H   -4.17700886313579      1.94411196682585      2.34731673810377
  H   -2.26744829407648      0.54384903228959     -1.23210748061555
  H   -4.24636141198892      1.46669358093904     -0.09361224171204
  O   -2.11297106429633      1.52830591051464      3.83162936987484
  C   2.27638526538471     -1.18999418330217     -1.85209303054510
  H   3.15610988879112     -1.60649364034849     -2.33807185382648
  H   2.02784719853957     -0.24004277740082     -2.32258919356330
  H   1.45013006719293     -1.89206029777579     -1.95240858879444
