22
Coordinates from ORCA-job 925optt
  C   0.75924500080868      0.16446827098374      2.03131189555823
  C   0.54297368104612     -0.04530951395322      0.66659244647181
  C   -0.25028906689457      0.67814152829576      2.82328890574639
  C   -1.48828443599446      0.98960402926217      2.26520444853114
  C   -1.71318427185300      0.78181450264455      0.89336001587862
  C   -0.67819510805129      0.25905377309726      0.10318322811596
  H   1.33659939575246     -0.44778016295122      0.05068239352312
  H   -0.85080956282764      0.09833461347677     -0.95420036337955
  H   1.71991215389541     -0.07636970529045      2.46715780354650
  H   -0.10746210426057      0.84928809331887      3.88206232541852
  C   -2.56210266907612      1.54019560272147      3.12086856216610
  C   -2.99264065192638      1.11014074084380      0.33586952985808
  C   -3.84482964588126      1.85709505416160      2.47907630306830
  C   -4.00240941716017      1.62424735009598      1.10459769323686
  C   -4.88163549477696      2.40124378282048      3.32450897407718
  H   -3.14923215873050      0.94306160989634     -0.72284795172708
  H   -4.94901861488049      1.85734119723436      0.63464259683898
  O   -2.38399382806361      1.72500360568383      4.32077465739360
  C   -6.11000075963445      2.75706803271104      2.93028349851841
  H   -4.59894831370188      2.51704819986817      4.36379636957487
  H   -6.44815595852047      2.66515619013485      1.90603697577131
  H   -6.82046816926881      3.15821320494386      3.63986969181260
