24
Coordinates from ORCA-job 92optt
  C   -2.80596311127643     -0.69517582378817     -0.18170238443931
  C   -2.31250628520424     -0.50598959199829     -1.40408353030693
  C   -1.92882504889914     -1.10670430612261      0.96176849133633
  C   -0.46726301994374     -1.24196219467992      0.66666225455332
  C   0.02221576437748     -0.98268538173845     -0.54467325421357
  C   -0.86010263015462     -0.62105762208568     -1.67918233396198
  C   0.48639856593575     -1.66438105315824      1.74757342428875
  O   -2.38002541252922     -1.31575205539485      2.05533301075224
  O   -0.41455520156078     -0.42680095630599     -2.78449968669244
  C   -4.25101938291887     -0.42625137956471      0.11411534867659
  H   1.08329383821660     -1.04845125755160     -0.75418484806432
  O   -4.62900387573285      0.23794697568453      1.03286834165687
  O   -5.04780740632740     -0.97529963518621     -0.80604068972908
  C   -6.44248732029113     -0.71291328726551     -0.62735911546201
  H   -6.63115891684192      0.35835962770516     -0.67474847715231
  H   -6.77221901847603     -1.09040585286360      0.33891140983439
  H   -6.94656174968743     -1.23040283641083     -1.43697866121633
  O   1.56182396519418     -1.15540970253737      1.90110306817805
  O   0.02336614351270     -2.68555903970434      2.45365480041814
  C   0.88791462312486     -3.15003745118693      3.49326277499894
  H   1.83102896560248     -3.49410392848206      3.07177989254830
  H   0.35756060122463     -3.96540412213165      3.97357578583229
  H   1.08348959504174     -2.34579358786987      4.20024487055690
  H   -2.93974368238648     -0.23159553736276     -2.24347049239285
