42
Coordinates from ORCA-job 931optt
  C   2.07231481769037     -0.94701191635360      1.82672937325921
  C   2.88917765814954     -2.08885647840998      1.72039971008598
  C   2.26331195625746     -0.02635630766756      2.83570816964337
  C   3.88940343038968     -2.26917466048355      2.64988470586677
  C   4.10841565557313     -1.34300949727541      3.69339071178183
  C   3.27425863703755     -0.20622583680868      3.77768325104871
  H   1.28083965105535     -0.78915810684231      1.10389846515609
  H   1.63789493018333      0.85283551999150      2.92140036014445
  C   3.46244176283469      0.79143616029190      4.85080481698312
  C   5.13863309044509     -1.53741159831980      4.64155388893005
  C   5.36899194682021     -0.61603328077310      5.69097461079439
  C   4.55593035633856      0.53477364574611      5.81150922919925
  O   2.74961626114986      1.77838328042455      4.94042272657327
  C   4.79056315963414      1.43289786230633      6.84690651430193
  C   6.39985588593537     -0.82009714086427      6.62937476430678
  C   5.80928159079609      1.20759592868400      7.75350431475488
  C   6.63130262959790      0.07387998056582      7.65626151473792
  H   4.15552046431010      2.30640392498149      6.91888087738683
  H   5.98179216941875      1.91542053401063      8.55560783577492
  H   7.01781290839454     -1.70632128192077      6.52974714665064
  C   7.73903542753721     -0.16097254143483      8.66024881328080
  H   4.53121309777725     -3.14165133404488      2.58751712392492
  H   5.76935374156781     -2.41493637694611      4.56272446129586
  C   2.66823306123083     -3.08770374410167      0.60704675719474
  C   2.88593203121442     -2.44463197673507     -0.76399664432215
  H   2.15484341162650     -1.65320862973663     -0.94041529350636
  H   2.77237347233662     -3.18696677751161     -1.55537244850414
  H   3.88124259448110     -2.00621207666732     -0.84029181252053
  C   1.27811866774335     -3.72009994690167      0.69532274217060
  H   3.41048185816471     -3.88061538707686      0.73168591034686
  H   1.15298592232113     -4.47393052923122     -0.08332663762884
  H   0.50029048679212     -2.96636694036297      0.55871576846535
  H   1.12100310105667     -4.19378547043781      1.66464917228315
  C   9.10840325342248     -0.21988871351104      7.98150331857428
  H   9.16746600783138     -1.07367040296552      7.30359624799917
  H   9.89817097061177     -0.32979261264306      8.72609903983989
  H   9.30147339801612      0.68350916923727      7.40256842218841
  C   7.48401069047467     -1.42880825181741      9.47776323694933
  H   7.73790301985497      0.69021990842867      9.34601822391108
  H   8.26114054763797     -1.55985330140579     10.23223485507996
  H   7.49041382059120     -2.30937837985693      8.83218111394122
  H   6.51710245569761     -1.38688641556074      9.97972464165563
