24
Coordinates from ORCA-job 937optt
  C   3.22263118539070     -0.60518038061117      2.87062623469723
  C   3.93488393088869     -1.80324239874178      2.62941732366736
  C   3.56089729025502      0.21300679038558      3.91003729593903
  C   4.63685762190656     -0.12077401765848      4.76838236726741
  C   5.36860629185297     -1.32025048238788      4.53963157404013
  C   4.96659285541264     -2.12910555047938      3.44933165925259
  H   2.40036570386292     -0.34458272214044      2.21796740331736
  H   3.67539095351466     -2.46051314622747      1.81118812617358
  H   3.01307614476403      1.12814345254742      4.09416252593645
  C   5.01330382588725      0.69780974428962      5.85385508408003
  C   6.05796855588132      0.35782259998735      6.67045705216290
  C   6.79792827457328     -0.84343613417482      6.43519704709961
  C   6.44103618082379     -1.66323162047806      5.37570582046205
  H   4.47318806030846      1.61494629347444      6.05691641410506
  H   6.99118425704302     -2.57629484833861      5.18755691614442
  C   6.42401197217273      1.24114649834705      7.80832192298323
  C   7.88644371380987     -1.17056032935211      7.29619963678317
  C   7.54628345481708      0.81656643470949      8.62384024491628
  C   8.23650112429998     -0.34637244063612      8.35970205786134
  O   5.80847597689885      2.27393106975381      8.04471511533586
  H   7.81211669396925      1.46102117986500      9.45099794324808
  H   8.44138013091824     -2.08047312388382      7.10685706253178
  H   9.06919120107835     -0.62819954398192      8.99168074205904
  F   5.65123459967028     -3.26220732426767      3.23959242993594
