18
Coordinates from ORCA-job 940optt
  C   -0.24981904443239      0.84722695321011     -1.20725875901163
  C   -0.95878309374461      1.85978997604954     -0.62939949230159
  C   -0.59291453924914     -0.54013184938358     -0.95421360299888
  C   -1.68623780272160     -0.79383829716769     -0.03523627254871
  C   -2.36270575460432      0.23703127234541      0.54857906913477
  C   -2.02778237132105      1.56925980311165      0.24066906785319
  O   0.02703844883693     -1.46551276482736     -1.49618777754501
  H   -3.16283436842135      0.05904699934288      1.25520308315840
  C   -2.76914746808356      2.65577246417929      0.95487207153336
  H   -1.92804938975753     -1.82887637321937      0.16670517559109
  O   -3.03350536746086      2.56140357012045      2.11764893686077
  O   -3.09412943309620      3.76903455744107      0.27761534872327
  C   -3.26001939525088      3.76977365394697     -1.13832971228693
  H   -4.13063739703275      4.38806103162629     -1.34289240007057
  H   -3.42998674756607      2.76630759869644     -1.52622535250376
  H   -2.38657554134203      4.20648610723731     -1.62080701269953
  H   0.58574714920598      1.03350561778024     -1.86886880079445
  H   -0.69084788395850      2.89183967951032     -0.81615357009378
