30
Coordinates from ORCA-job 944optt
  C   2.15036801631710     -0.78887891202632      1.70926672402125
  C   3.05231655062669     -1.85848359626794      1.63535188387711
  C   2.22790787228684      0.11960738701275      2.77578439465988
  C   4.01955696381842     -2.04472256486789      2.58675514440497
  C   4.12852064141493     -1.15187519586175      3.66859074473068
  C   3.22386335695755     -0.05813075530055      3.75961432640818
  C   1.11682758285922     -0.65613940204846      0.62237234729978
  C   1.24569409283421      1.25812266455048      2.84194630343203
  H   2.97664846767935     -2.54972377431450      0.80461036264328
  H   4.70969498402308     -2.87662944707776      2.51932796765005
  C   3.36745230905086      0.87571787649606      4.90418564206957
  C   5.13254869983194     -1.36510371173575      4.63741507099649
  C   5.29766733470873     -0.51119932300105      5.74645084658495
  C   4.43612202388838      0.59529877930013      5.89418506655397
  O   2.65021447737145      1.85358501273868      5.05850661783634
  H   5.79464974884415     -2.21472151135538      4.52030328799232
  C   4.58787885801013      1.44848062414878      6.98602325739131
  C   6.30192899239286     -0.73164376934468      6.71405281489507
  C   5.57499532255847      1.21705276818677      7.92380911668363
  C   6.43601017412603      0.11978910298775      7.78370585807241
  H   3.91347729388577      2.28977254675545      7.07354150312887
  H   5.68629192456345      1.88333355813119      8.76902939864717
  H   6.96365073641425     -1.58159586216747      6.59857152953310
  H   7.20843524745027     -0.05548077991494      8.52130758036081
  H   0.53941963805994      1.21839749933175      2.01889295335637
  H   1.76122523381199      2.21753363964822      2.82088130317268
  H   0.69595877375984      1.24232638406217      3.78179508063797
  H   1.23747003604980     -1.44959919497440     -0.11281638250859
  H   1.20103355069902      0.29987405397504      0.10280613786999
  H   0.10311109570524     -0.71937409706639      1.02214311759827
