24
Coordinates from ORCA-job 949optt
  C   2.16916838207629     -1.15826815540539      1.68403655113382
  C   3.01942924156503     -2.26179209637480      1.70107327020191
  C   2.25352884132403     -0.21837038392651      2.69443831012167
  C   3.93426256679810     -2.41276854375097      2.71707408971834
  C   4.01939018977917     -1.45763921730263      3.74942444796358
  C   3.16224533002110     -0.32751725767791      3.74787757615373
  H   1.43907904902838     -1.01037015046391      0.90054010170214
  F   1.41954624296220      0.81153452402017      2.62385543218999
  C   3.24043317031289      0.69090519850616      4.82794102727090
  C   4.95778560222125     -1.62289922784056      4.79168634141048
  C   5.07978381653703     -0.70329824285894      5.85642083184373
  C   4.24058748573769      0.43948274172035      5.89818248186031
  O   2.52880812629710      1.67322661997192      4.83487669050439
  C   4.40155456620068      1.30912385619006      6.97802027669059
  C   6.02983900188280     -0.92241703380638      6.87370663673185
  C   5.33326272801637      1.09140015055792      7.97589772910351
  C   6.15155105096737     -0.03447405711229      7.91695366524485
  F   3.65078827759386      2.39796059293304      7.08980244636106
  H   5.40237606320606      1.80772001495262      8.78267299325593
  H   6.66030720596648     -1.80055867811916      6.82014079670824
  H   6.88180341910781     -0.20529326282318      8.69659476765104
  H   2.95505174766359     -2.99790252127888      0.91096703523520
  H   4.59915525534081     -3.26653125415737      2.73828971356311
  H   5.60638263939382     -2.48973361595336      4.77584678737952
