44
Coordinates from ORCA-job 952optt
  C   2.22669412844438     -0.98107973717157      2.23985010843642
  C   3.14471672609908     -2.03159824482172      2.21541715592606
  C   2.24813056425331     -0.01293461913960      3.23911325213410
  C   4.10977088799591     -2.11634685740564      3.18743979164442
  C   4.15871974924486     -1.16640439417762      4.22822406754550
  C   3.20240815288316     -0.11515980370966      4.26840041044223
  C   1.26365540232298      1.09599027719112      3.10856393104837
  C   3.19816057824413      0.80213894092209      5.43816964192320
  C   5.16047743365622     -1.27812951249076      5.22071026922333
  C   5.25496782916103     -0.37132926651652      6.29849485992286
  C   4.29625175962821      0.65488204021541      6.42083347130952
  O   2.32329277046028      1.63045401463758      5.62063806181231
  C   4.36801898411834      1.53501740359689      7.49795340005163
  C   6.26916640447739     -0.48122048421633      7.27124023906338
  C   5.37005809031900      1.41294422079788      8.43781422679195
  C   6.33944377263840      0.39643914930256      8.33520243767569
  H   3.62214437692887      2.31542836855758      7.57067830439137
  H   5.43045334891084      2.11890668912161      9.25630036308976
  H   6.98770875784664     -1.28846477499538      7.18826789746606
  C   7.40569391264475      0.27116145117875      9.35550250758269
  H   3.10235077932660     -2.76521160441279      1.42098489554488
  H   4.84238455415240     -2.91385364777618      3.17313702997227
  H   5.87831755620646     -2.08600200072273      5.14532433008639
  H   1.48749660971894     -0.89234671878929      1.45386758704202
  C   -0.09885792524798      0.81844622031962      3.10293696569043
  C   1.68924869099563      2.40426950985193      2.89035760144722
  C   -1.02491161785840      1.83493659926541      2.90389793572245
  C   0.76811500139720      3.41534399778921      2.67941254282477
  C   -0.59382679753570      3.13460698109714      2.68983178177795
  H   -2.08306200611337      1.60769001802924      2.91594073844275
  H   -1.31313471387438      3.92742345527311      2.53123650138201
  H   -0.43506123067454     -0.19742029391070      3.27215412044516
  H   2.74947738183661      2.62507063914883      2.89602642795892
  H   1.11139184973457      4.42764201342787      2.50976346857571
  C   7.12252536534333      0.47534177866684     10.70623203103198
  C   8.71119250941694     -0.05644874627498      8.98858297373825
  C   9.70641395728154     -0.17884287701295      9.94652785327900
  C   8.11652591209965      0.34982194740345     11.66495590328463
  C   9.41214640783357      0.02262883222713     11.28828322496527
  H   7.87717883166187      0.50189154691073     12.70940295107103
  H   10.18832542551973     -0.07326672393484     12.03603278984699
  H   6.10958527742169      0.71046697450872     11.00875293158150
  H   8.95144531653314     -0.19178077473623      7.94124370418926
  H   10.71606923454648     -0.42425198722527      9.64364931261798
