24
Coordinates from ORCA-job 956optt
  C   2.14416045276824     -1.08474879100688      1.70543506268512
  C   2.98086273588994     -2.20602600624899      1.69101238330203
  C   2.23274163065278     -0.15691146471323      2.72646041111953
  C   3.88702711445414     -2.36663552152269      2.70396798247071
  C   4.01882453735759     -1.44976521239028      3.76453252440524
  C   3.15760546924836     -0.32701238314652      3.75166843841342
  H   1.42465990269239     -0.95029253173246      0.90924450301634
  H   1.59321202724328      0.71472732428444      2.75499890379655
  C   3.23506003797433      0.67711227722599      4.83570372340916
  C   4.96444906744338     -1.63953968130505      4.79453605682128
  C   5.06685406495984     -0.70428984240849      5.84600237235863
  C   4.23555918343413      0.43946688103468      5.89946300973967
  O   2.50820010665078      1.65488837032308      4.85207018088275
  C   4.35023016974203      1.34863870666797      6.94619557305402
  C   5.99814584653932     -0.86527723662243      6.88971631802138
  C   5.28071132810158      1.14542644941225      7.94820536684875
  C   6.11809374497233      0.02473660318112      7.92255179025948
  H   3.69477214303003      2.20880243513593      6.94959272565648
  H   5.36776681324925      1.85344243512117      8.76115825583866
  F   6.79312471752422     -1.94146158232016      6.85655502595847
  H   6.85370666805175     -0.15568422630503      8.69433825862977
  H   2.92980988858157     -2.94608094372118      0.90426599304172
  F   4.68891944134443     -3.43820458685139      2.70009941033858
  H   5.61161290809426     -2.50375147209183      4.77855572993219
