21
Coordinates from ORCA-job 957optt
  C   1.35505688423207     -0.41772007534070      1.56815763725995
  C   1.10159857969293     -0.55389021531758      0.20108869910147
  C   0.42130847764581      0.17342635553603      2.40034082784433
  C   -0.80164607707100      0.61193650806310      1.88542261597947
  C   -1.05674368547053      0.48306263749833      0.50357839877122
  C   -0.08452447844485     -0.10194531812932     -0.32771051896522
  H   1.84363509624557     -1.01285607631573     -0.43839945291754
  H   -0.28702340964706     -0.19699693833087     -1.38747086327719
  H   2.28831463237198     -0.77216116232174      1.98675375620842
  C   0.78628039076962      0.31293053110295      3.85072600722720
  C   -1.84795636624961      1.16429392790898      2.77139884079086
  C   -2.29444488804163      0.94797751385742     -0.02918976274002
  C   -3.06457751257787      1.63253519632406      2.14148952890185
  C   -3.26566146942984      1.51788463075590      0.78467328608283
  H   -3.81357578439638      2.05434163127196      2.79821176700274
  H   -2.46634582962717      0.84909521309420     -1.09356240473305
  H   -4.19177510397735      1.86440128398931      0.34473244372652
  O   -1.70282739322259      1.19975931273240      3.99164260087661
  O   0.88559640162715     -0.60798925575423      4.60798676594180
  O   1.11070940695940      1.57435321539011      4.16340675228110
  H   1.29488212861136      1.59583108398534      5.11409307463659
