12
Coordinates from ORCA-job 961optt
  C   -1.60249682868217      1.34612536689892      0.00000016613057
  C   -1.86822224114712     -0.00032976147530     -0.00000014536928
  C   -0.24706810386527      1.88949651930736      0.00000357655622
  C   0.81952069617413      0.90992696686376      0.00000001367241
  C   0.51755207554531     -0.40993754812213      0.00000003130178
  C   -0.80587189889004     -0.89507012760087      0.00000080861842
  H   -2.89358645099904     -0.34258703529699     -0.00000117088388
  H   -0.97061240208141     -1.96346504214820      0.00000057916443
  F   -2.59399288603978      2.21282134593150     -0.00000084867947
  O   -0.04786738905526      3.10521316411810     -0.00000091337871
  H   1.84158474841724      1.26154569756095     -0.00000139096280
  F   1.49581068062341     -1.32175954603713     -0.00000070616971
