22
Coordinates from ORCA-job 964optt
  C   1.24746809523438     -0.05463555546089      1.88059722491797
  C   1.21160509084948     -0.33657110663423      0.50951970709679
  C   0.14701409244649      0.48045902208844      2.50833843033993
  C   -1.02831915885510      0.75147550913954      1.78012952427919
  C   -1.06453691536912      0.46719287935838      0.39534210589668
  C   0.06953068618448     -0.07747275149108     -0.21766257488735
  H   2.08054044756749     -0.75811300239698      0.02168324857324
  H   0.03543841079870     -0.29355333399442     -1.27865352763239
  H   2.14508179659903     -0.25894387254399      2.44908337836549
  H   0.17018747139649      0.69913946489273      3.56625117664838
  C   -2.18529997050931      1.30686903472500      2.41258673088965
  C   -2.26218699758839      0.74062984062199     -0.35483953708766
  C   -3.39376941309057      1.58514997572188      1.65431562799084
  C   -3.35142412778586      1.26246083083841      0.23287268492654
  O   -4.41005983394371      2.07017011779033      2.17403959128601
  H   -2.26160914182737      0.51212237401824     -1.41423574207847
  H   -4.25904796628727      1.47385519738647     -0.31706465540871
  O   -2.05852510654230      1.53928114628340      3.70917414256395
  C   -3.10435991277921      2.07487764212607      4.52451054900978
  H   -3.39337775368985      3.06378384237423      4.17926110295524
  H   -2.67312164768392      2.12166544887765      5.52096687107064
  H   -3.97513814512457      1.42497729627880      4.50867394028422
