24
Coordinates from ORCA-job 965optt
  C   2.16158383104520     -1.07951866039908      1.73586096435109
  C   2.99041340847364     -2.20553751404986      1.70553464665227
  C   2.25634535316618     -0.16088984961601      2.75844950154583
  C   3.91303773101696     -2.40109812593330      2.70258879286503
  C   4.04113150672757     -1.47998190695894      3.76545664782798
  C   3.18851717502565     -0.35170458620356      3.77332780424356
  Cl  1.00985005212284     -0.84906860877010      0.47080544863612
  H   1.62012384353308      0.71297549036286      2.79460077264279
  C   3.25985603752446      0.65524715680154      4.85337883326499
  C   4.98434765494572     -1.64093743777550      4.81737433936399
  C   5.10579165982990     -0.71002634439510      5.88958565700811
  C   4.25758275014251      0.42171217102474      5.91501035477039
  O   2.52869094808015      1.62943486486327      4.86242177957688
  C   4.35305529868360      1.34562941083945      6.95292665385764
  C   6.04061854085601     -0.86751970929976      6.93437798086213
  C   5.27360523226931      1.17164034430806      7.96605790613653
  C   6.11853553149328      0.05734617828436      7.94943128099514
  H   3.68462665656313      2.19610437655692      6.93381225235830
  H   5.34282638461138      1.89271373582573      8.76939917464865
  H   6.69937749849693     -1.72335333939996      6.93411725740983
  H   6.84263838092206     -0.08176681470357      8.74150745419348
  H   2.89691266348554     -2.91421840867641      0.89424790243168
  H   4.54992744775452     -3.27275091963480      2.67193884100794
  Cl  6.01673441323033     -3.01292150305099      4.79413775334956
