28
Coordinates from ORCA-job 966optt
  C   2.35137150247191     -1.36451069711073      1.77848245770578
  C   3.21687783798878     -2.44062136760367      1.84915314114939
  C   2.36855531986386     -0.35225568708392      2.75696819321618
  C   4.12565510911584     -2.55353657454284      2.88516654439411
  C   4.17542978432717     -1.56607225107021      3.88251931368048
  C   3.29289359126023     -0.44800941521875      3.82911908379826
  N   1.50668353453450      0.68426560784822      2.65497899552342
  C   3.34829768749505      0.57562500319414      4.86434733407806
  C   5.10505049676892     -1.68747502085253      4.93985078138892
  C   5.19552301896104     -0.73184667525935      5.95975189585971
  C   4.34103533188539      0.39640070265295      5.94679091951183
  O   2.61366407551080      1.57007222369184      4.87575699529755
  C   4.41759570107196      1.34965680164188      6.95100066515344
  C   6.12202779242364     -0.84859088014293      7.02470130820973
  C   5.33212808905367      1.21839261929427      7.99006086053409
  C   6.19079087546943      0.09555057826331      8.00971799504843
  H   3.74687509383975      2.19892903521282      6.90504602381343
  N   5.44412413172923      2.18589095167098      8.96591615468623
  H   6.78365657218872     -1.70610967372634      7.04973468851219
  H   6.90878496592797     -0.00503316900204      8.81509261192009
  H   3.17809748453436     -3.20204728264055      1.08042310219201
  H   4.80289375592702     -3.39558093162426      2.93979790522322
  H   5.76363920222692     -2.54765780924694      4.95595583714606
  H   1.64289092697247     -1.28527138000670      0.96294217899739
  H   0.87027937802130      0.72840995802387      1.88134901184302
  H   1.53479103711562      1.40628724111748      3.36062782138416
  H   4.67100645491432      2.82241411918992      9.06714220916713
  H   5.87250124840000      1.91644397333012      9.83564597056553
