28
Coordinates from ORCA-job 968optt
  C   3.64282852729360     -0.61097271085272      2.77795896340454
  C   4.34691585057485     -1.82960581036807      2.62792429701418
  C   3.88784281909123      0.22591329752979      3.82537273593474
  C   4.86393644585015     -0.11807523027656      4.79321437994725
  C   5.58184570733864     -1.33911258925059      4.66344100795293
  C   5.29684251951517     -2.18858402817913      3.54687512204110
  H   2.89740262604282     -0.34986557238667      2.03813493639857
  H   4.12436598748094     -2.46418940922465      1.78317666738793
  H   3.34691952107329      1.15684422309899      3.93391862406886
  O   6.02479429867675     -3.32598223206858      3.49460962274222
  C   5.14809763966016      0.72074944970283      5.89073464445561
  C   6.09132731367745      0.37982616232572      6.82338800208052
  C   6.80944539677341     -0.84913069097021      6.69913641207925
  C   6.54317114411533     -1.68398862217781      5.62164365206710
  H   4.61622736009027      1.65730218279674      6.00938394264897
  H   7.08294990448299     -2.61587675109511      5.51758369304783
  C   6.36892803672306      1.28749532352395      7.96599740456979
  C   7.78045233192389     -1.19106599909373      7.68280201874396
  C   7.37380527970867      0.84513263883828      8.91431382665040
  C   8.04121336867932     -0.35008971502461      8.76031116979278
  O   5.78091541277083      2.35504327524356      8.10075948586571
  H   7.57264506502130      1.50468479601623      9.74843991933178
  H   8.31712269147588     -2.12548017654060      7.57902690799071
  H   8.78520179132885     -0.64422436129587      9.48989606693989
  C   5.78702685799719     -4.21083737357395      2.42151842213513
  H   6.46134332671733     -5.05035643516817      2.56472481145343
  H   5.99970256729252     -3.73011656223066      1.46332111725061
  H   4.75351020862341     -4.56609707929825      2.42891214600347
