32
Coordinates from ORCA-job 970optt
  C   1.90999852763632     -0.66749711812301      1.86273761972971
  C   2.82829684694324     -1.68264137242277      1.61864279512697
  C   2.03830930056207      0.17443045419224      2.96363298765312
  C   3.88410579448796     -1.88094097175465      2.47562347879801
  C   4.07305023213957     -1.04509087475819      3.59603046386763
  C   3.13120786516505     -0.00989471867289      3.83800628359329
  H   1.05329490938858     -0.54542702608867      1.21358188242004
  C   0.98819244779265      1.19571203750959      3.16517428963436
  H   2.69505501153563     -2.33600559698061      0.76606191147472
  H   4.56059900520628     -2.70346649856299      2.29733234675056
  C   3.31696736256514      0.87257718923907      5.00882510566628
  C   5.18180376723778     -1.28069257887064      4.48084859249108
  C   5.37124950630828     -0.45541535270970      5.63521860942946
  C   4.45004524836560      0.57819863180564      5.91333490718563
  O   2.58836720803642      1.82479069755728      5.23701341077634
  C   6.11090649396474     -2.37030385634284      4.16214881286807
  C   4.60907381592192      1.38651867687677      7.03783982433832
  C   6.48109738773809     -0.59261083069302      6.50218255132217
  C   5.67553276968296      1.20225488572274      7.89305921219152
  C   6.62198603697316      0.21344383043374      7.60747586591841
  H   3.87551767064847      2.16298449300108      7.20777289677042
  H   5.79063876387404      1.83055086693999      8.76625934287487
  H   7.24026147643375     -1.32747435620020      6.28349032901757
  H   7.48084525247571      0.08591253206569      8.25380821806526
  C   0.48452212714933      1.91641757970303      2.17071340125092
  H   0.62630616921321      1.34247046514438      4.17248127866701
  H   0.86730824370180      1.83939490924804      1.15962419542324
  H   -0.30753730612467      2.63151893891943      2.34681687861067
  C   6.49280350690208     -3.33113889360405      4.99884572395764
  H   6.48054410651867     -2.40092411715793      3.14129452461709
  H   6.12153324312485     -3.38043765560155      6.01515974114324
  H   7.17404720843114     -4.10847436981497      4.67896251836626
