22
Coordinates from ORCA-job 972optt
  C   0.81588892151891     -0.09063715528958      2.09880493087285
  C   0.92197946482690     -0.52691167233570      0.77124360000256
  C   -0.30683983673180      0.60161210354202      2.50153665249317
  C   -1.36002523887928      0.87677848442643      1.57249018541806
  C   -1.22246261471378      0.41841613637257      0.23067855980797
  C   -0.07626173398851     -0.28017589504829     -0.14927623722356
  H   1.80951282352091     -1.06802094704112      0.47021647097408
  H   0.02224226590513     -0.62483185711017     -1.17060827017288
  H   1.61648830450286     -0.30124747341775      2.79168522630885
  O   -0.50772778140869      1.06276758249621      3.74765338039375
  C   -2.50230227928804      1.57857972656656      1.95255112563519
  C   -2.28152996865292      0.69313764581946     -0.70633595501382
  C   -3.56276281072349      1.86105265738664      1.01708297978602
  C   -3.38707726329262      1.37046727318603     -0.34963144163504
  O   -4.57117973644231      2.48996475605930      1.35872279238923
  H   -2.15714922414453      0.33310773936396     -1.72126150519520
  H   -4.18603453267359      1.58083109857095     -1.04849215667617
  H   -2.62574957071275      1.93524914710371      2.96523217446549
  C   0.49191213107860      0.82617493403612      4.71814801520092
  H   1.43455328739671      1.29658246828202      4.42902327061626
  H   0.64633003223638     -0.24523186299272      4.86535174476298
  H   0.12901536066597      1.27229511002331      5.63928445678916
