21
Coordinates from ORCA-job 973optt
  C   1.37898212487420     -0.08299480176412      1.86846877392617
  C   1.30358490044465     -0.35563900321897      0.49290102735890
  C   0.29354397075058      0.44080748110535      2.52165764469439
  C   -0.90849502788400      0.71153903783939      1.82246769792046
  C   -0.97858937730928      0.43372046183648      0.42788794753109
  C   0.14373581975900     -0.10027003252437     -0.21118050229505
  H   2.16268107334398     -0.76970438596543     -0.01856399386701
  H   0.09328555142875     -0.31317844006772     -1.27214976461286
  H   2.29371035469745     -0.28763159360549      2.40834622641532
  H   0.33717020111388      0.65593899160990      3.58235313422624
  C   -2.03358582864981      1.24500284194391      2.46012666191254
  C   -2.19817973343198      0.70750841623818     -0.28753542314559
  C   -3.25615084772795      1.51887166402308      1.74999045106796
  C   -3.29437359521868      1.22031977894956      0.30642350376197
  O   -4.24084232979124      1.98854277393935      2.33205466334175
  H   -2.21497708563588      0.48364277303536     -1.34943502987295
  C   -4.57057687111660      1.51289742932639     -0.41136607697759
  H   -2.02138329915679      1.47038560387112      3.51939194807625
  H   -4.49489696147003      1.25596873662026     -1.46643576824013
  H   -4.82652924327222      2.56901731983169     -0.31405688984458
  H   -5.39426379574802      0.95636494697609      0.03818376862269
