32
Coordinates from ORCA-job 975optt
  C   2.57734473024936     -1.37605504746176      1.96590858429182
  C   3.38533302486999     -2.50810461519393      2.11167354672596
  C   2.66427885508308     -0.32978699737547      2.86180129022369
  C   4.28001207974135     -2.61881188572231      3.16183356559276
  C   4.31684207216167     -1.58169564045028      4.14805436331900
  C   3.52485535034453     -0.42309272118206      3.95035919042050
  C   3.56960107637894      0.69485922148476      4.91964504583100
  C   5.06610675459593     -1.71994517307483      5.33252231393887
  C   5.12091923869964     -0.69585269254306      6.30998471714381
  C   4.40846671317892      0.50825413606892      6.12028788445839
  O   2.93543270551727      1.72190216060781      4.73738823570712
  C   4.47619654099356      1.51880856935019      7.07751458304300
  C   5.88357067040643     -0.85061103609958      7.48724229913215
  C   5.23521825058126      1.35028412774973      8.21874651355134
  C   5.94011740536852      0.15618154143746      8.42176578910707
  H   3.91552146988750      2.42713173562305      6.89941420339882
  H   5.28448306392153      2.13720756884811      8.95963104745877
  H   6.42784868061746     -1.77465136552759      7.64070116616081
  H   6.53079116826742      0.02656901553602      9.31940754049406
  H   3.32195449112441     -3.29493875841279      1.37322080750619
  N   5.13442218177082     -3.72640049471747      3.31296416198660
  H   5.58177762582311     -2.65159667161758      5.52301436202053
  H   2.06734364124013      0.56541453440571      2.75341915942093
  H   1.89664933533382     -1.31765833121571      1.12660059037490
  C   4.76665383361884     -4.93027245611851      2.59582729037744
  H   3.71908279151887     -5.16676210327038      2.77532770157568
  H   5.37773157857344     -5.75362160875093      2.96610372161352
  H   4.93323161361682     -4.84926634044476      1.51174507075527
  C   6.55632376837953     -3.43604465511331      3.14718430482607
  H   6.81986489200165     -3.35557385613351      2.08343036683818
  H   7.14502650367738     -4.24074501702076      3.58957096956922
  H   6.81905789245664     -2.50114514366504      3.63438961313624
