24
Coordinates from ORCA-job 983optt
  C   2.19091518427692     -1.15586933828330      1.67438404896640
  C   3.03487044964658     -2.26240021728743      1.70993793280110
  C   2.24270580514270     -0.19664661308015      2.67573616449554
  C   3.93191683280080     -2.40712123880159      2.74003692150267
  C   4.00230105891109     -1.44555101037419      3.76629701358021
  C   3.13894006206635     -0.31527926238784      3.74819040367318
  H   1.48349880767395     -1.02571683232927      0.86766367546690
  Cl  1.14823199132191      1.12495335636751      2.50000882692093
  C   3.22432571378158      0.66782498837267      4.85687576795813
  C   4.94798842563375     -1.62879597056856      4.80370658114814
  C   5.08406982255987     -0.71448911775835      5.86520525214717
  C   4.24559402584946      0.42271049025087      5.91001363422999
  O   2.50356012400562      1.64369666037548      4.93632737390012
  C   4.35208625937025      1.34268770887083      6.94698932152648
  C   6.02788981741556     -0.87191461079747      6.90958856602002
  C   5.28406659867747      1.15678506369551      7.94939113940737
  C   6.12706731199776      0.04247624776701      7.93031553580346
  H   3.68887089937237      2.19660517827944      6.94196230773861
  H   5.36840984990160      1.87192091557244      8.75643354712256
  Cl  7.08886937136182     -2.23981389917902      6.91759822275065
  H   6.85954887718031     -0.11039969794760      8.71082738568450
  H   2.97980889067549     -3.00176542807207      0.92207155331941
  H   4.59779757326815     -3.25968187514536      2.77795311066305
  H   5.58275624710858     -2.50268549753954      4.76882571317331
