18
Coordinates from ORCA-job 985optt
  C   1.29220602715375     -0.03789224934752      1.97534486182335
  C   1.20719505882184     -0.29527494083683      0.60364943865728
  C   0.20557980920875      0.48240506600797      2.64829137294919
  C   -0.98010669769623      0.75473069473306      1.96927114777075
  C   -1.07239827093955      0.49699000315017      0.58380365791512
  C   0.04511902132306     -0.03361757172176     -0.08589017759955
  H   2.06031617752568     -0.70350352966516      0.07798040243985
  H   -0.01529600812348     -0.23453903928248     -1.14610603304021
  H   2.21061689889427     -0.24758145648872      2.50755824863180
  H   0.24078245923799      0.69192757083102      3.70921052262091
  C   -2.12851956433980      1.31197744272247      2.71701196716658
  C   -2.31028552991943      0.79207228945751     -0.07184761022978
  C   -3.33271241981834      1.57510039435099      1.95724517963025
  C   -3.40501596484554      1.31854003731432      0.61222019087938
  H   -4.17459275854885      1.98344451486796      2.49976025975818
  Cl  -2.48010922967314      0.49804300453874     -1.75417633047466
  H   -4.31241983478708      1.52018384419740      0.05878534760146
  O   -2.06476917347390      1.53994392517087      3.92195755350006
