24
Coordinates from ORCA-job 986optt
  C   -1.23663459997738      1.19275888892754      2.61604018873195
  C   -0.16661923504707      0.77219307351712      1.80507027018625
  C   -2.50442952787560      1.28490212872910      2.09473879259383
  C   -2.74705707211023      0.95876274304413      0.73993588717226
  C   -1.65972003135060      0.53417168507368     -0.07592117910101
  C   -0.38052551406140      0.45030596066112      0.48337001976532
  H   0.81874586020766      0.71087011152563      2.24711939722871
  H   0.44555803499132      0.12682610900833     -0.13779966348533
  C   -4.03050102683820      1.04307346856802      0.18338048885439
  C   -1.90456442144669      0.20203225198322     -1.45619062281234
  C   -4.28343261038157      0.71250937615209     -1.19543281884725
  C   -3.13442943444640      0.28218541206403     -1.99422797899822
  O   -5.41953798716593      0.78982015918492     -1.67727926473313
  H   -1.05942095512865     -0.11794103365769     -2.05477571383203
  H   -3.32943538799805      0.03517870406171     -3.02953443616586
  C   -0.93591618726476      1.52705411582314      4.03718701405350
  O   0.16215410175892      1.46297108562014      4.52153370064048
  O   -2.02007268262347      1.90756537109546      4.72039668018223
  C   -1.78940425183465      2.24079904134955      6.08897481053588
  H   -1.08364351517630      3.06671017280147      6.16097734975266
  H   -1.38614745145612      1.38158268146836      6.62240810401314
  H   -2.75625516194031      2.52474704716529      6.49215225977977
  H   -4.87635668100023      1.36261407615523      0.77921807747693
  H   -3.32749426183423      1.60847736967835      2.71814863700782
