20
Coordinates from ORCA-job 987optt
  C   1.28836418484664     -0.05616493868315      1.87281103179595
  C   1.18030212272473     -0.29961586780905      0.51789343418335
  C   0.20916219884824      0.47274078457516      2.60989028501160
  C   -1.00202669080677      0.75464647471792      1.93461335815690
  C   -1.09313537539278      0.49686981778585      0.54259074587986
  C   0.00145336986799     -0.02930114137314     -0.15758594723121
  H   2.02892129820488     -0.70618950050740     -0.01700066875514
  H   -0.08671386768101     -0.21904492082567     -1.21911144705104
  H   2.21409557969882     -0.27106225297134      2.39308160610452
  N   0.34940697028814      0.69858041630690      3.93443986008607
  C   -2.15830484020742      1.30444270211628      2.64124193648533
  C   -2.30391529970028      0.77460819838273     -0.14792150392504
  C   -3.35412897562054      1.55812937068097      1.85934400616118
  C   -3.41086473930026      1.29729603014469      0.51285680915706
  H   -4.19768421496835      1.96466599714968      2.40119353073412
  H   -2.34839060845109      0.56910584841512     -1.20979357691658
  H   -4.31913128535700      1.49811207212892     -0.04085703712660
  O   -2.15606268761846      1.55617526683567      3.85664105829451
  H   1.21879292858769      0.49045714726427      4.38896979521498
  H   -0.43641006796314      1.07905849566559      4.44358272374016
