42
Coordinates from ORCA-job 990optt
  C   2.26207181185135     -0.61710402344407      1.19413228977919
  C   3.28104037463014     -1.58529305487488      1.06165380388297
  C   2.17166373171300      0.10774924869760      2.40046439158341
  C   4.19269694248834     -1.84855455941526      2.03810773590547
  C   4.18637698079030     -1.08456316275444      3.21748000383318
  C   3.20476582081892     -0.06888162702688      3.37118293842339
  C   1.40728863204999     -0.54428890920797     -0.07928753060335
  C   0.98771812006322      0.99256284795796      2.79710301149193
  C   3.35793745526197      0.81215799380021      4.56689258774788
  C   5.13974318433665     -1.38153668756464      4.21567317951727
  C   5.18494325845319     -0.68925295283331      5.44065131625517
  C   4.30111484111652      0.38963006486053      5.63293051212765
  O   2.78666433165180      1.88501944936452      4.69272191156151
  C   4.33584854388913      1.10580582675476      6.82830473264415
  C   6.09276874495145     -1.02797769905135      6.46669812832926
  C   5.22045507042254      0.75290031939548      7.82901053655968
  C   6.10480975193193     -0.31873471701311      7.64322539874977
  H   3.65561199563412      1.93837613500515      6.94682773244652
  H   5.23542405864231      1.30729327916960      8.75804310562365
  H   6.77645237117351     -1.85386311017634      6.31176308245076
  H   6.79993932366462     -0.58529162726709      8.42875704638090
  H   4.93600427523166     -2.62578407494452      1.91132986912381
  H   5.83923883156963     -2.18893762554682      4.03504480527848
  H   3.32492586493858     -2.15590969768482      0.14112742468341
  C   -0.39065896751857      0.38410639809473      2.52861587210467
  H   -0.70689154253792      0.43605168344296      1.49238733501138
  H   -1.12716487687459      0.93637045720816      3.11537805020560
  H   -0.42728948269386     -0.65943705106138      2.84613436106993
  C   1.08636429412169      2.44907279422455      2.33032202456604
  H   1.04238538609694      1.04656607911657      3.87873586948893
  H   0.91033935431738      2.56427408614644      1.26487441080919
  H   2.06358433338809      2.85943429301979      2.57378135802055
  H   0.33833809032485      3.04252670610550      2.85974807832707
  C   0.92814084449240      0.81614823188321     -0.58232416444485
  H   0.06405132477803      1.20665656704975     -0.05483128379064
  H   0.64251115768455      0.70879310615696     -1.63053888379250
  H   1.72722631229192      1.55562023039551     -0.52813659726730
  C   0.30104591078496     -1.60827574552909     -0.11049880724722
  H   2.11441354438962     -0.86081226646140     -0.85019535979433
  H   -0.16029676931639     -1.62890240637460     -1.09972581032466
  H   -0.47961136232897     -1.42209419315218      0.62252134129651
  H   0.71672813132478     -2.59692060646577      0.08976419198528
