24
Coordinates from ORCA-job 993optt
  C   2.17050833143769     -1.11561737299150      1.74750167125527
  C   3.00759561531411     -2.23255563979166      1.70780549201074
  C   2.24456523404228     -0.17081690516115      2.74158300614518
  C   3.93447640091407     -2.39864895711011      2.70551646485376
  C   4.04435924405345     -1.46104692363211      3.75723741633308
  C   3.18433965335968     -0.33804114687868      3.75460581259938
  F   1.26407626573998     -0.97372012147849      0.77561953042045
  H   1.58898711471801      0.68945126373754      2.74987090623017
  C   3.26109496544677      0.67693662978393      4.82792733913206
  C   4.98389015304439     -1.63614064455931      4.79700677968917
  C   5.08112363675763     -0.70444849629893      5.85100456970017
  C   4.25204310397617      0.44134669777976      5.89762142991183
  O   2.53743539896634      1.65822848063379      4.82832842173620
  C   4.36001961403483      1.35096963147381      6.94570040906179
  C   6.00059768011383     -0.86871790257948      6.90495681131970
  C   5.27850029662091      1.14382684347658      7.95691975195350
  C   6.11200761495325      0.01900331905809      7.93973336040551
  H   3.70753222737155      2.21341460540091      6.94246610107479
  H   5.35952993792914      1.85074162527415      8.77140065586491
  F   6.79231467737025     -1.94888820602611      6.87898827865022
  H   6.83724302316206     -0.16539815646793      8.72034068678209
  H   2.90599693532966     -2.94065992090245      0.89684112177042
  H   4.59255581482272     -3.25844813776374      2.69738147689476
  H   5.63531706052118     -2.49924056497688      4.79000250620474
