24
Coordinates from ORCA-job 996optt
  C   2.16119543002087     -1.09746432844032      1.74639389897275
  C   2.98789369014512     -2.22108700260635      1.70015088631854
  C   2.24045114558231     -0.15447830083027      2.74284836580081
  C   3.90311494781940     -2.37142685813429      2.70409326258857
  C   4.04203963917363     -1.45184123602567      3.76446944885372
  C   3.17980304461489     -0.32988337080051      3.75311510938177
  F   1.25846832472579     -0.95290123164678      0.77410560382591
  H   1.58942156990268      0.70857886379498      2.75433513108848
  C   3.26579763469698      0.67783176897764      4.83443536074653
  C   4.98536014577944     -1.63700056567689      4.79362709985282
  C   5.09434572682844     -0.70972273866018      5.85654782817849
  C   4.25916281434289      0.43069774603946      5.89721847255262
  O   2.54321552418226      1.65993484620202      4.83930513491205
  C   4.36703627507672      1.33667888553664      6.95063946138040
  C   6.02861603616450     -0.90063051421418      6.89737541293222
  C   5.28563598086990      1.12828224780158      7.95993697780133
  C   6.11957754601699      0.00245692722386      7.92932029486902
  H   3.71215762346404      2.19803195213259      6.95089034265101
  H   5.36303575670013      1.83365457071983      8.77656319531055
  H   6.67134002360703     -1.77202445197495      6.87087368411298
  H   6.83803765666103     -0.15612981358585      8.72288751340987
  H   2.90448731877865     -2.94550417253172      0.90287220529412
  F   4.70489654508771     -3.44019985038255      2.69134418518489
  H   5.63099959975856     -2.50432337291809      4.77299112398047
