23
Coordinates from ORCA-job 10002optt
  Br  1.58300573871807     -0.17173454750699     -0.51405188017966
  C   3.43650642296037      0.02798574340338     -0.27044386817198
  C   4.10159565461462      1.25028930384004     -0.17584109866305
  C   3.44978817764078      2.55315620869805     -0.33841162039798
  O   2.24507655676767      2.70282800562281     -0.59252646956856
  C   4.32191105891293      3.71642949592586     -0.18017199394896
  C   5.65693629038280      3.61202351215450      0.08043063100416
  N   6.21555080683805      2.38402772171124      0.19939853793188
  C   5.51602625195437      1.19448271471509      0.08684091565418
  C   6.19506871461906      0.00834971975412      0.22726577337861
  C   5.49247031795824     -1.22097459812239      0.11304694098524
  C   5.87373108355496     -2.54936807701169      0.19102522123392
  C   4.71341115554416     -3.33026131340155     -0.01618397453600
  C   3.65565621138848     -2.47564484003645     -0.21277695002842
  N   4.12820835068568     -1.18571122740222     -0.13334373340827
  C   3.76470947060450      5.02300675651987     -0.30899978924390
  N   3.36755777448778      6.09888026474212     -0.40395599752325
  H   6.30906908704841      4.46436719316811      0.19732851131520
  H   7.19897683012422      2.31158395652705      0.39374260150263
  H   7.25840664552379     -0.00750378478664      0.42700953269322
  H   6.87756746763477     -2.89586370475381      0.37555004936485
  H   4.64686021032971     -4.40635646485883     -0.02292684449734
  H   2.61790972170649     -2.67199203890167     -0.40200449489651
