26
Coordinates from ORCA-job 10008optt
  Br  1.18148681739020      0.47068059429661      0.23187082531835
  C   3.05281416867409      0.16272109779709      0.12227649665667
  C   3.59357433536208     -1.15063558267222      0.04220585363593
  C   2.83550907814608     -2.37940502103098     -0.12008516318981
  O   1.62077486176048     -2.46038332639621     -0.20717836952438
  C   3.65573678088635     -3.65904772393897     -0.23981953443033
  C   4.97890408781142     -3.56359805858127      0.48914041628887
  N   5.67472832396064     -2.39236969591289      0.00413785293405
  C   5.01827514202672     -1.18282897344420      0.04066134402162
  N   5.81265913706001     -0.12799499517192      0.06415385886022
  C   5.26198989976602      1.09803324563770      0.09757014876569
  N   6.02813002707363      2.19131049617459      0.11142608126688
  C   7.42867418485859      2.38392515074362      0.07689093100378
  N   8.35407150178631      1.46352086164565     -0.03702145666948
  C   7.71553265820717      3.78544056817869      0.17772630051084
  O   6.84056067105024      4.67904179263915      0.28955721148137
  C   3.84373036401059      1.26475073428891      0.14812044093889
  H   3.83817928818927     -3.82886903996912     -1.30554652958514
  H   3.04095209126586     -4.47653452233040      0.13452529166632
  H   5.59589498682067     -4.44208319494287      0.29992711858042
  H   4.79808094156589     -3.49995146267328      1.57169141895022
  H   6.65071367597841     -2.29163504303111      0.24056573726234
  H   5.56530187655368      3.09561249169777      0.17674396807937
  H   7.91920113511896      0.54944570717268     -0.09141793352790
  H   8.78657522997916      4.02976851160740      0.14905802520379
  H   3.42194873469739      2.25708538821559      0.21681966550143
