26
Coordinates from ORCA-job 10000optt
  Br  0.69924219972970      1.44542985540896     -0.85141148194211
  C   2.40802786968490      0.65472707515304     -0.50692935161124
  C   2.57459712498651     -0.72801463679345     -0.52509875636790
  C   1.49589059234212     -1.67772498233494     -0.97908991425986
  O   1.07695161129995     -2.61951677325000      0.00587335896835
  C   1.86798816539007     -3.77740960944040      0.08034534019023
  C   3.26406117609218     -3.54053883984791      0.63174052404439
  N   4.05637215983118     -2.69703771442942     -0.25424752673626
  C   3.80615861126108     -1.30234641940213     -0.17144016090477
  C   4.85996548755584     -0.41824040379926      0.18059721842979
  N   6.15930883474663     -0.68352219545804      0.56028174860043
  C   6.68519759696024      0.48441006889335      0.75741313284311
  O   5.83482325054647      1.52794184863837      0.53678911502461
  C   4.66428586864024      0.94855724538222      0.16587955814568
  C   3.45811586361589      1.59455918174611     -0.16495613126206
  C   3.34124075724623      2.98945683474376     -0.16522878730266
  C   3.26407939724683      4.20017700880151     -0.15121801721437
  H   0.60301803708571     -1.13199854264361     -1.26649971178331
  H   1.86882734899621     -2.23013503048363     -1.85209665541954
  H   1.33030623547533     -4.46948241062942      0.73338693818748
  H   1.95861662105897     -4.23365227228777     -0.91583339480957
  H   3.75768492126153     -4.51424687906449      0.71470138993564
  H   3.17780286480994     -3.10447057283880      1.63670685444414
  H   5.04487079947197     -2.84781267837619     -0.09797194362606
  H   7.68995368812345      0.73174881719672      1.05121600052449
  H   3.18161291654077      5.25814202511545     -0.13190934609863
