23
Coordinates from ORCA-job 10004optt
  Br  1.47333292288975     -0.05014735453033      1.44666736271775
  C   2.93331443877265     -0.13246330979200      0.21981581605888
  C   3.66026477623619     -1.34298578543915      0.02445678754222
  C   2.93239624097082     -2.59912359841993     -0.16804224716932
  O   1.71833452303916     -2.68330767246049     -0.20275495395638
  C   3.75578747094410     -3.85868322386294     -0.39917629672210
  C   5.17736801785638     -3.71272506214664      0.09641960993009
  N   5.70907009171612     -2.47355881174191     -0.42841527822317
  C   5.05370704551987     -1.30461656735280     -0.13706945595475
  C   5.84957612085505     -0.10356281193401     -0.06222492994179
  C   7.20473304063184     -0.11813157106518      0.35524339875298
  O   8.04477849895303      0.78199219888616      0.27105375430707
  C   7.69093629337028     -1.32116070679950      1.10861094085716
  N   8.14624232000656     -2.19669893529774      1.69651423916840
  C   5.28555581707810      1.21300411041037     -0.37109454110101
  N   5.88375368422254      2.29565264862817     -0.65545413775678
  S   3.50387508742084      1.39979733327833     -0.30245921390375
  H   3.75291123883884     -4.03686414565800     -1.47925389081096
  H   3.23668471061346     -4.68880761448789      0.07878760645111
  H   5.80858957106218     -4.53434836899198     -0.24052023636962
  H   5.19690741023817     -3.69518714452558      1.19413501646583
  H   6.70660744765223     -2.42205344477227     -0.52790292856775
  H   6.89027323111165      2.13997983807535     -0.65933642177412
