25
Coordinates from ORCA-job 10012optt
  Br  1.22001517841804     -0.37101496991939      0.35564795000677
  C   3.09656932824703     -0.15585785646497      0.17008730481757
  C   3.71321642891719      1.11802092806699      0.20030887735378
  C   3.33921807329745      2.46260873124256      0.35357975663183
  O   2.01840456057140      2.86807533634329      0.50379472026202
  C   1.90154005728278      4.24102952097124      0.65378679353302
  C   0.48496368030067      4.60211458748517      0.80793032400559
  N   -0.60034628371510      4.94715470253864      0.93235869130239
  C   4.48061147612177      3.26719459394406      0.33285050052877
  C   5.61766967275704      2.42430325800022      0.16001501313893
  C   5.14066051190783      1.12590296676815      0.07578745230601
  N   5.81127322777010     -0.06807460567483     -0.13661399282772
  C   7.24491233075307     -0.09952344498407     -0.11176942520282
  C   7.81825700996909     -0.09396499593411      1.24542879834904
  C   8.27066358181028     -0.09427434499174      2.35504809177806
  N   5.21204997321612     -1.29344294797948     -0.07498544316673
  C   3.88790054968508     -1.28372948385148      0.05262112739352
  H   2.30034552204879      4.77788089781360     -0.21755472566391
  H   2.44697660713687      4.59837803645283      1.53758305292768
  H   4.51962036289956      4.34070050410849      0.43893563251516
  H   6.64701323297507      2.74677752508109      0.13888515512751
  H   7.62214763485235      0.76685484199614     -0.66144377093768
  H   7.55994947797863     -1.00623848326214     -0.62929945204396
  H   8.64867394726625     -0.08970448905331      3.34815287497871
  H   3.43469385753253     -2.26717080869696      0.06686469288643
