22
Coordinates from ORCA-job 10010optt
  Br  1.20278657108892      0.61819617054003      0.52574672970214
  C   2.96161371708294      0.09965467728413      0.07596072515439
  C   3.45579795529740     -1.22386098510726      0.16910764432259
  C   2.70444537555126     -2.40777496064658      0.58045713897614
  O   1.50500609651832     -2.38486300160427      0.88726977699156
  C   3.49261162832441     -3.61924317972792      0.60079012719906
  C   4.80168478665327     -3.60224189305766      0.23866117491452
  N   5.49118098802163     -2.51026175297023     -0.15520733409343
  C   4.81338338398260     -1.38870605628020     -0.17604828929562
  O   5.58270098941544     -0.33059992468938     -0.57519958188579
  N   5.07573237100900      0.95905330689430     -0.68513795708742
  C   3.81695088282176      1.10700170145354     -0.35610937428810
  C   5.65155026958875     -4.87783108761742      0.21179395820356
  C   5.20682823417907     -5.90349009971332      1.16095925939041
  C   4.85012279218091     -6.73413661960273      1.94560278513875
  C   5.71641020355560     -5.42546430563328     -1.15083586407200
  C   5.75852831122744     -5.85984804916636     -2.26548364583489
  H   3.00345641418237     -4.53173662625136      0.91277692568646
  H   3.46457823494988      2.12725518938737     -0.44721073898957
  H   6.66251092414943     -4.56633980016224      0.49005848657693
  H   4.51773389259656     -7.46140980664328      2.64531471509960
  H   5.78538597762296     -6.22935289668581     -3.26126666180927
