27
Coordinates from ORCA-job 10016optt
  Br  0.76842308651845      0.68752818939309     -2.26092912849563
  C   1.97901197355417      0.95596857910221     -0.79397561100615
  C   3.07904239208449      1.84239539084158     -0.95959096280892
  C   2.81210972042539      3.23077639098240     -1.42445548589678
  O   2.19485799559440      4.13472039449305     -0.44168707378820
  C   1.51466234971911      3.56862320726036      0.65000803520212
  C   0.10594218908670      3.04008866948869      0.27364586125853
  N   -0.45779808851948      2.04384597295866      1.21210553260414
  C   -0.44052599434786      0.65426212081989      1.12273479790859
  N   0.45302921261071     -0.16667746706528      0.75817391140998
  C   1.72019176019415      0.37226362716099      0.42949944899637
  C   2.68196276195985      0.40228757232935      1.44568006732476
  C   3.94987575870505      1.02417127218328      1.24181247355123
  O   4.89403901638944      1.04742682330723      2.04120547201354
  N   4.07438626346544      1.69608845899440      0.03002237882291
  C   -0.84916812086056      4.14992247273571      0.19182972318985
  C   -1.63661255118289      5.05360378289980      0.16197688976964
  H   2.15889040829904      3.20374976082486     -2.29905350558003
  H   3.73434124261598      3.75042507221617     -1.69642372392770
  H   1.40339097202460      4.36975157363787      1.38385564309713
  H   2.06909128647090      2.75830788857422      1.11809471114498
  H   0.16712356783244      2.60291038671144     -0.72107772099104
  H   -1.32324845828656      2.36838132671806      1.60992053938891
  H   -1.37207999452576      0.22971611029088      1.50058219169753
  H   2.47072308886690     -0.02844229548962      2.41175760077833
  H   4.93875906472504      2.20763476361171     -0.06769713498604
  H   -2.32342090341919      5.86326995501895      0.11898506932198
