26
Coordinates from ORCA-job 10029optt
  Br  2.26661254358815      0.96757960538793     -3.55274759489574
  C   2.87450291456436      0.87915733695419     -1.74072027401367
  C   3.60176261038781      1.94503264391391     -1.15693795990607
  C   3.55719045813415      3.35028923468751     -1.69375268426363
  O   2.25983116828135      3.91988915148321     -1.52424197835748
  C   1.74702399900869      3.95507491950542     -0.20188863046070
  C   0.70611619674485      2.84613985047299      0.07943661314659
  N   1.06705310077251      2.04531702963436      1.26304533591709
  C   0.55609388597217      0.73867493212675      1.32941564338282
  N   -0.67715245114613      0.43219212290384      1.39422871639878
  N   1.53785982103355     -0.26933380430814      1.31534170954782
  C   2.54239311475061      0.03169006420946      0.32721124201347
  N   2.14896141015515      0.09863036540708     -0.90905299399933
  C   3.76711103774392      0.64610208335074      0.73448146610367
  N   4.10362647844443      1.80128227240883      0.04352491596422
  C   4.37621753630822      0.39017168599401      1.97910532666670
  N   4.89887363709849      0.15657160742695      2.98460562910316
  H   3.74579345335543      3.39517866453855     -2.76515685278994
  H   4.30392756793769      3.94290214066398     -1.15697823238147
  H   1.27793213446866      4.93470848042050     -0.09399829518935
  H   2.56325539633896      3.89366217999595      0.52429867404994
  H   -0.27649794365836      3.29558493697991      0.23692128310890
  H   0.64200428245971      2.21679183098811     -0.81284959526433
  H   2.06898223337742      2.05056151550390      1.40023430989144
  H   -1.23101856909975      1.27858173479923      1.49790500416710
  H   1.09254398297784     -1.17243258544926      1.21256922206001
