27
Coordinates from ORCA-job 10026optt
  Br  0.87203149239471     -0.15130567912942     -0.20233192797386
  C   2.77781952634758     -0.10225590165282     -0.08122001826512
  C   3.51227368125764     -1.24928527139978      0.00938820748842
  C   2.80002964127102     -2.58483000182593      0.00417719515469
  O   3.64909478475839     -3.67779675721148     -0.28259507678876
  C   4.78526673513402     -3.67967281377418      0.53624418016207
  C   5.70557785337858     -2.50086320642923      0.21291893218729
  N   6.84451394376216     -2.51788102735825      1.10732801483368
  C   6.80662697468842     -2.05631233488983      2.38928969940093
  N   7.77638973481956     -1.93622533211982      3.20747154964134
  C   6.23710191955019     -2.65665127331268     -1.19978502552736
  O   7.40158862029420     -2.53625981555131     -1.49965790408077
  C   4.92266069563076     -1.19516908282774      0.17117861642649
  C   5.65384727731975      0.00479715423723      0.20168437788175
  C   5.14019019794542      1.31732998935560      0.11182455042163
  N   5.75470177000133      2.45482987262045      0.12537997613459
  S   3.36200401763533      1.54167004117000     -0.02440054957865
  H   2.02366257039436     -2.60217634859394     -0.75774808676718
  H   2.31438946226248     -2.74976562126212      0.97793060331246
  H   5.31214838238119     -4.62126575751439      0.36916348874314
  H   4.50259451053842     -3.61959537458928      1.59745386719979
  H   7.73985963676951     -2.56193430063800      0.63714675232551
  H   5.80501781302128     -1.78164993365098      2.71964809959855
  H   8.65436891921479     -2.22120094396817      2.76979157653369
  H   5.45379700367933     -2.82763124943399     -1.95515348940156
  H   6.73236107811652     -0.05635630655956      0.30687398523082
  H   6.75608175743297      2.28845727630964      0.21999840570641
