22
Coordinates from ORCA-job 10020optt
  Br  0.53220519101355     -0.17388568289339      0.76707263470277
  C   2.92807278912379     -0.03326546510588     -0.10903020619477
  C   3.61117197202489     -1.24199994363472     -0.05902827237515
  C   2.85885223603511     -2.54264701414421     -0.04649035261930
  O   3.70955795398600     -3.68792882159017     -0.24443709533848
  C   4.88017430817447     -3.65142781305018      0.50093266678828
  C   4.61634310104353     -3.48772112015138      1.96081724783844
  N   4.42848277259303     -3.37084438419282      3.08349231368974
  C   5.56449631448431     -4.95316543360667      0.33173649606646
  N   6.12984370693670     -5.94091414712883      0.21892776764736
  C   5.80064240501863     -2.48869883180401      0.04049342726429
  C   6.35037824388069     -2.77371860879779     -1.28814362107923
  N   6.78338841948283     -2.98841601172556     -2.32673426601562
  C   4.99507528202122     -1.19657774442733      0.02540260892766
  N   5.71516229169574     -0.08016812863118      0.08068874101680
  C   5.04034734386345      1.06586099461859      0.05405930237523
  C   3.65367609840578      1.13944380794061     -0.03990904985960
  H   2.12947691215971     -2.58089810396091     -0.85108569834247
  H   2.31900006510587     -2.64402466445991      0.89999982086669
  H   6.63409475534071     -2.37749812449555      0.73687514229705
  H   5.64084556040629      1.96980616379519      0.10390024696674
  H   3.16071227720354      2.10468907744620     -0.06053985462290
