30
Coordinates from ORCA-job 10024optt
  Br  3.94866755135866     -0.69057991405480     -2.86819667366200
  C   3.68846873981525      0.19607177111522     -1.20939120793348
  C   3.17208759504715      1.43268675792349     -1.06674244851046
  C   2.64931896846106      2.27574024295947     -2.18846476855727
  O   1.23054100414504      2.13808529827198     -2.33289545432526
  C   0.39004600534910      3.22111711247170     -2.01356243601475
  C   -0.31610301381730      3.06539705766974     -0.67132488312862
  N   0.62916247291550      3.25405275440486      0.39898123518554
  C   0.37411635229258      2.86985099804545      1.68320030263811
  N   -0.75993779645636      2.61807843530079      2.22705573232145
  C   1.64495636717717      2.74736860132527      2.52416938089252
  N   2.33869885002769      1.46942009861580      2.44321034932669
  C   2.94366730798128      1.07481787278177      1.22217123796402
  N   2.95190042073274      1.94677018048031      0.18603737664935
  C   3.50336881179207     -0.22284147999279      1.16319741689195
  N   3.57438508989123     -1.15405050626639      2.07622255274409
  N   4.09153837620544     -0.53875131205231     -0.09304649468326
  H   3.09408469136996      1.98936092865089     -3.14166648872210
  H   2.89519936893302      3.32258434460622     -1.97947404546976
  H   -0.36711869900803      3.28269526997736     -2.80113825805182
  H   0.95434077911585      4.16181056386465     -2.01375636183525
  H   -0.78122161710563      2.07045203369220     -0.63199691370581
  H   -1.12156620825860      3.80841646732786     -0.61490836618537
  H   1.60639432153427      2.96318978777759      0.16064501271238
  H   -1.51214604303520      2.68832164118534      1.54190806209426
  H   1.35993381709221      2.90331576735165      3.56353004129135
  H   2.34451226791071      3.52924326714048      2.22581310457931
  H   1.76421565866349      0.72166623176337      2.81625373654621
  H   3.23162812306833     -0.79168542593179      2.96027186919989
  H   4.23286043680127     -1.53060484640542     -0.21010261025188
