21
Coordinates from ORCA-job 10032optt
  Br  1.16299286320955      0.39466147037028      0.45416316004852
  C   2.99101609190721      0.08831243119330      0.13159917555206
  C   3.54504347005925     -1.20171742369950      0.01920615059536
  C   2.78357428900499     -2.43447937579727     -0.16078671647888
  O   1.55593930800556     -2.50990497013594     -0.19082261587446
  C   3.57879094928288     -3.65410517301783     -0.37044399587464
  C   4.90623161864509     -3.68548349295871     -0.26173376753359
  N   5.62182768263142     -2.52238403450264      0.01643453819700
  C   6.86383895989262     -2.66487781265157      0.62047786477706
  O   7.45229831977100     -3.71279213530744      0.69391308995793
  C   4.97304570659882     -1.27396855397641     -0.07181351745303
  C   5.70587998852878     -0.13376687861338     -0.26984151910823
  O   5.13401982267876      1.11591125139503     -0.21248249714398
  C   3.78942082085307      1.28224892939444      0.08704456387600
  N   3.36952924858652      2.47264350965564      0.26064688344886
  C   7.05816623225817     -0.09010251386749     -0.67343788222000
  N   8.15816443415512     -0.05037412179079     -1.02218586746727
  H   3.02264030238354     -4.55751451265849     -0.57693413312992
  H   5.51541635469546     -4.57479048181187     -0.31485199836488
  H   7.24132896596603     -1.73221566659638      1.05083060600217
  H   4.14883457088608      3.11669955537703      0.14701847819391
