24
Coordinates from ORCA-job 10036opt
  Br  4.43853543002095     -4.11355478516472      0.23453763596035
  C   5.35730582941765     -2.88702438267660      1.38287947359781
  C   5.55232886897052     -3.16415831607982      2.72656446423362
  C   5.92492246939423     -1.97948123484669      3.51213565577280
  O   7.10431926202189     -1.31741905044439      2.92067450405018
  C   7.15284646346791     -1.36697904353519      1.57463162021527
  C   8.36704234210069     -1.60316250073706      0.99789805534106
  N   9.27782022771385     -2.37847012839453      1.69488526579129
  C   9.39777095935879     -2.39926480423118      2.94423617371406
  O   9.63906988080628     -3.62840635289042      3.57718421074315
  C   8.41084242278062     -4.13830826849232      3.96366206301428
  N   8.17997526344468     -4.32267247079218      5.18382593545697
  C   7.44349594177653     -4.51539100058706      2.84412183933130
  N   7.80404587061324     -4.94954862186416      1.72409053245816
  O   6.12555550993782     -4.41080842044518      3.19000727779652
  C   5.89085642572870     -1.68489228443709      0.81451083075596
  N   5.52950495114559     -1.11432033581230     -0.29526057815569
  H   5.12710858275840     -1.23570715922547      3.51244775503079
  H   6.22732783853133     -2.21738140295286      4.53088056137909
  H   8.43721254462968     -1.64674180320389     -0.07817302592017
  H   9.21330856604712     -1.60158397286384      3.65454287561652
  H   7.23910020080370     -4.70909923746587      5.27084379712406
  H   8.81806595394687     -4.88464051111223      1.63905801336386
  H   6.15263819458223     -0.33098391174469     -0.48418493667150
