26
Coordinates from ORCA-job 10035optt
  Br  1.08706661755692      0.55701557854553     -0.33554687117311
  C   2.88898448388488      0.04934574929149      0.25334423103046
  C   3.53299130535018     -1.05062436933926     -0.32707097840460
  C   2.71373104195480     -2.16528167258154     -0.92056327152587
  O   2.99017941479317     -3.49577830447889     -0.41751233516637
  C   3.14855496323097     -3.59171974508907      0.95918607086186
  C   2.01773690713274     -3.02379344515758      1.72381921007713
  N   1.08863250030888     -2.65746161876028      2.28454535838045
  C   4.51257734137794     -3.11260615077408      1.49450292249651
  O   4.63493585537601     -2.83545728171124      2.65723821289476
  C   5.69612198335160     -3.24749022094243      0.55248603314446
  C   5.59603651068969     -2.40662365115477     -0.73474998916434
  C   4.94120127151486     -1.08226402877033     -0.41983309346324
  C   5.78875549112259     -0.02400693790420     -0.12134581517573
  C   5.39915677845065      1.24357623127639      0.39948722619253
  N   6.10979818188126      2.29928666436107      0.59269045373206
  S   3.71729680837170      1.37887462211558      0.99972179900451
  H   2.88911887325213     -2.27365489827713     -1.99331929727313
  H   1.65500111907542     -1.96640834178848     -0.76349684257546
  H   3.14620174114305     -4.66781834587425      1.17574978669099
  H   5.80806196160325     -4.31209991192478      0.31384391783307
  H   6.56043917538384     -2.93484447004555      1.13846489369322
  H   5.04793926224322     -2.95654746810011     -1.49853663750142
  H   6.60515845332048     -2.23559755697756     -1.11342632400544
  H   6.85585645952300     -0.15869323254281     -0.27404657850686
  H   7.06446549810662      2.11767280660435      0.28036791790356
