27
Coordinates from ORCA-job 10044optt
  Br  1.77168137946152      1.73708586168611      2.78638664648520
  C   2.48179846377703      1.16501805875997      1.09167303048112
  C   3.42648425180802      1.98267653340110      0.46449201482777
  C   3.60392938484736      3.43806865557190      0.66081819295579
  O   2.85273207935233      4.25394940078204     -0.27125050778032
  C   1.46068088659030      4.07289406784972     -0.22774894393440
  C   0.94830989025885      2.84563469401764     -0.98261232368688
  N   1.31942888170353      2.64796820179922     -2.17714727133882
  N   0.05583684783543      2.06870217385535     -0.24378895825987
  C   -0.51109418965835      0.87477039524532     -0.73238578091422
  N   -0.39012236152156     -0.28444971912495     -0.25296200447728
  C   0.62445155772194     -0.56654424903341      0.78565361094022
  C   1.95266588030734      0.06691730197785      0.43725037777584
  N   2.44566684499788     -0.37041168889386     -0.74941380977844
  C   3.45882449074962      0.29308313297139     -1.34839108481108
  O   3.96362485221920     -0.01585372928933     -2.42239804784674
  N   3.96014364629628      1.44424248335144     -0.70417317772470
  H   4.63670681416254      3.74040440036094      0.46776653875589
  H   3.33712871334706      3.72527815318009      1.68033418277249
  H   1.02741672159833      4.95346631151625     -0.70580804656336
  H   1.10972336195909      4.03877650880121      0.81155688393326
  H   1.01040030484716      1.74376720463310     -2.53419186384364
  H   0.24334358949012      2.06054113877198      0.74912906412866
  H   -1.15803474175901      1.01955174230129     -1.59754124792119
  H   0.73168218429047     -1.65139345680783      0.80148704743447
  H   0.25643390240846     -0.24947910656821      1.76271524406996
  H   4.46315636290898      2.05933552888364     -1.32544976567972
