26
Coordinates from ORCA-job 10042optt
  Br  0.54739946226729      1.01436274756601     -0.57043330499185
  C   2.93162465298368      0.23229162916677      0.00186139792547
  C   3.46406845042833     -1.02477784776379     -0.16648342030116
  C   2.45107453016139     -2.14905025775220     -0.15279489610221
  O   2.30215978472653     -2.83835618064308      1.09950844359898
  C   3.11414512746353     -3.95859429228718      1.31804713222218
  C   4.57491370895157     -3.58451530189239      1.18507684396377
  N   5.34325698440041     -3.17820827556452      2.10578312790469
  N   5.01117842754194     -3.57848327513437     -0.13590905445027
  C   5.68069308259591     -2.36192035186962     -0.56168870010405
  C   6.02584250144456     -2.51006434394577     -1.98374134139038
  N   6.27679555535208     -2.64921664491287     -3.09308054531849
  C   4.88252165026032     -1.06472064912281     -0.33247687947660
  C   5.64266733860531      0.07040753599986     -0.30877234406174
  C   5.07176434799127      1.37887227859361     -0.13801071976539
  O   5.67010469153160      2.44684792433752     -0.11062441173807
  N   3.68301680586499      1.33370304309996      0.00693306991204
  H   2.59494990405215     -2.88266358059123     -0.95499361461258
  H   1.48410001680902     -1.67652329475316     -0.31475978278529
  H   2.87291681230848     -4.76450997196052      0.60718777190619
  H   2.90053367658506     -4.31052429214312      2.32719377662589
  H   4.86023053744883     -3.18706119494095      3.00016960480260
  H   4.30470512622441     -3.87312185024021     -0.79075907762954
  H   6.61293173954650     -2.27688243364160     -0.00178636348875
  H   6.71777044011063      0.02686997714044     -0.42603952926838
  H   3.21063464434401      2.22783890325528      0.08659281662294
