26
Coordinates from ORCA-job 10053optt
  Br  0.94497616874341      0.09835402718446      0.05301952797344
  C   2.86820044281801      0.00034312220553      0.02507421328667
  C   3.47062042095362     -1.23350056430330      0.05547839864175
  C   2.71152646199671     -2.53978703701174      0.11517695894965
  O   3.40711777099474     -3.58062077836071     -0.53803513664544
  C   4.70078761037804     -3.81808554623255      0.00111668767597
  C   5.56342646215063     -2.57501613098556      0.10861805471627
  O   6.80103856160770     -2.73324996969388      0.21948732758421
  C   4.90085374212566     -1.31997720792529      0.07416157656303
  C   5.63127470008484     -0.09617835864761      0.07341210984898
  C   4.98373713071430      1.10889532429777      0.03436873314090
  C   3.57792893675624      1.21421452153678     -0.00188791621440
  C   2.92119299879211      2.56972371247159     -0.04577875270363
  C   2.42255857271826      3.04268318989103      1.25187726839890
  C   2.02319060793439      3.42631506729425      2.31629681761457
  C   2.39577445382586     -2.90154478374159      1.51395075241541
  C   2.13738149188146     -3.19703881789583      2.64700120463788
  H   1.76735470479402     -2.44170881929589     -0.42053335961648
  H   5.18910633591160     -4.51732765006741     -0.67768858962111
  H   4.61397657789813     -4.29952945821729      0.98547727204876
  H   6.71114004218884     -0.15568882871874      0.10403690795086
  H   5.56293389282514      2.02776950789414      0.03320945222028
  H   2.08490617008738      2.57939559831331     -0.75006165219342
  H   3.65033139883869      3.29668449939642     -0.41193928126043
  H   1.66836595277942      3.73888412268931      3.26769663183934
  H   1.91729839020070     -3.44100874207720      3.65746479274802
