25
Coordinates from ORCA-job 10060optt
  Br  1.13958957732376     -1.06044342875107      1.18896083355245
  C   2.86400695978068     -0.47824824659561      0.53744938076239
  C   3.18294232808311      0.85169001392423      0.66710084065930
  C   2.38581175802916      1.82240277116362      1.48136657633993
  O   1.23566075577158      2.36492606609046      0.82202555212411
  C   1.47588952509845      3.45894612295895     -0.01864519305666
  C   2.64285631570918      3.27198933019684     -0.96111956292067
  O   3.84991062559964      3.46039733278440     -0.22297119674426
  C   4.79633164951285      2.49516126327736     -0.30386247642482
  N   5.96939161016912      2.83553382296792     -0.66805918231966
  C   6.97421211183830      1.83449635149347     -0.66971085627811
  N   8.21136500799321      2.15908030599473     -0.77048276735198
  N   6.59324103355053      0.51467158723900     -0.62425254427885
  C   5.36428139706043      0.21543635167401     -0.29181437686571
  C   4.86810041769129     -1.09647468363527     -0.29772810025913
  N   3.60880299039966     -1.44072360861156      0.03667605277189
  N   4.42215065598239      1.22962656056142      0.05369740181129
  H   3.02301430112483      2.62974695893495      1.84993953498422
  H   1.97041996200238      1.29290435553747      2.33559017325041
  H   0.56024800125275      3.61163184248467     -0.59336332409635
  H   1.67168909612122      4.36606219802327      0.57114631511714
  H   2.61914243242491      4.03473369027964     -1.74301660385015
  H   2.61510840794959      2.28499123237400     -1.42701109327014
  H   8.25372319438315      3.17421076024903     -0.81884744322935
  H   5.54910988514779     -1.87574895061595     -0.60906794042728
