25
Coordinates from ORCA-job 10061optt
  Br  1.07429313707466      0.12235367315634     -0.28499056333960
  C   2.96427113776744     -0.01561048891449      0.01924064738142
  C   3.50880338278320     -1.25509493373156      0.46814354122326
  C   2.85279721933866     -2.57360119363588      0.53948449392724
  O   3.34212702931125     -3.54146281151777     -0.43271788839719
  C   4.52325191939650     -4.19976645806094     -0.06466608350863
  C   5.79877886420096     -3.34325738842222     -0.09971989404906
  O   6.67372952496340     -3.57591894385812     -0.89146970025367
  C   5.90249763107573     -2.23152386272929      0.94076522709853
  O   7.17548443562965     -1.61760040747123      0.93679901966915
  C   7.06775888552533     -0.23005865874136      0.61172595554623
  C   7.65077711983681      0.58796091370609      1.68560570662155
  C   8.11624254945694      1.26705541763954      2.55635343933471
  C   5.59094816382577      0.01503804258984      0.40791849360100
  N   5.06861826868892      1.19222298498747      0.00770724066278
  C   3.71104769034502      1.11565565146859     -0.17396694196737
  C   4.91904642324119     -1.14193728169545      0.64296887945723
  H   1.78543192450857     -2.48828393799643      0.34721719069763
  H   2.99125599325499     -3.04981210945350      1.52466287214880
  H   4.67847134057638     -5.01023978947870     -0.77633544142325
  H   4.42481674566884     -4.62546412003120      0.94784874150065
  H   5.73439253428553     -2.70109980077310      1.92404722610128
  H   7.62398109793747     -0.03208745990279     -0.31131148115722
  H   8.51544061978019      1.87588172164822      3.33010447760393
  H   3.21673636152648      2.02565124121796     -0.49341515847941
