22
Coordinates from ORCA-job 10065optt
  Br  0.93128918873903     -0.30022497481892     -0.06762713066989
  C   2.80401983632205     -0.08524985777542     -0.06844535204769
  C   3.50614125167269      1.14108412669680     -0.06863792309527
  C   2.84081285833597      2.47214048710777     -0.06869995313093
  O   1.60557147615624      2.56648074322386     -0.06870848335737
  C   3.71498663004932      3.62787054688674     -0.06879856564443
  C   3.11478202113654      4.94953821970939     -0.06877924374196
  O   3.72568434169862      6.00803594358743     -0.06888812710456
  C   5.09823859355436      3.50027522425861     -0.06898211729917
  C   5.71127535660907      2.26201939331001     -0.06905313719165
  C   4.91911047179032      1.12043566302497     -0.06889490155884
  O   5.65294391871498     -0.05585310480483     -0.06898650550961
  C   4.97914844912659     -1.22024820166255     -0.06896599982472
  C   5.46402708438660     -2.47874718866204     -0.06914006484126
  O   4.41914932410903     -3.35958256659514     -0.06899012786762
  C   3.26879600828486     -2.62923906658999     -0.06872933560481
  C   3.54825910596933     -1.29283425474585     -0.06868355610966
  H   2.01309019535682      4.94710545080046     -0.06872655977527
  H   5.68852325803096      4.40946865270304     -0.06907740622167
  H   6.78575068801606      2.14414014110957     -0.06921694927220
  H   6.45573588989633     -2.89142939878571     -0.06936814272296
  H   2.34466405204415     -3.17818597797822     -0.06860041740845
