29
Coordinates from ORCA-job 10079optt
  Br  1.80492552404424      0.01175615264174     -2.56809344546077
  C   2.22295913314753      0.64744342729652     -0.80279476994919
  C   3.15956345088083      1.69511987726216     -0.67496654053715
  C   3.36337890593552      2.75645891409779     -1.69027026125403
  O   2.24854106316841      3.65792278611888     -1.94746645079235
  C   1.57771074894863      4.13810782017949     -0.80502528544347
  C   0.30314892702818      3.34550844519025     -0.49147616674291
  O   0.28518266201916      3.08247358087483      0.91551816706427
  C   -0.53360021073474      2.10560622084656      1.34506325036984
  N   -1.49581870845861      1.69431115931210      0.63719671196576
  C   -0.07770623300818      1.57989616356978      2.70037550564424
  N   0.88204377366743      0.46587094585535      2.60552350845825
  C   1.84321454931128      0.68651950172138      1.57911269010119
  C   2.88928575814051      1.50831431736009      1.73603757519776
  N   3.57871946519457      1.99419207933894      0.64971545933383
  C   1.54077417388874      0.04676490209758      0.26178114331838
  O   0.71809693909958     -0.90057426576936      0.23667976858200
  H   3.56061753152738      2.33014991740828     -2.67297177900007
  H   4.22177333129000      3.37440302775784     -1.39153977165173
  H   1.33095217346199      5.18389433070732     -1.00767387703110
  H   2.22275870929618      4.10472427370129      0.07805479978058
  H   0.31326460100388      2.39651179910634     -1.02910089667933
  H   -0.60433485030225      3.88716930409379     -0.76614044729524
  H   -1.95099902049841      0.90571734306338      1.08809396247921
  H   -0.94614696135444      1.23924235284600      3.26688493143257
  H   0.38999924489624      2.40343362487611      3.24178632415429
  H   0.37511588289081     -0.36261887291438      2.29163575111447
  H   3.17073822743232      1.90214697796415      2.70812829513646
  H   4.53884120808319      2.27253389339574      0.79093184770423
