27
Coordinates from ORCA-job 10087optt
  Br  2.06598567143956      0.23090847553972      2.98409302108977
  C   2.71350347293334      0.56761304101041      1.25018881530805
  C   3.33195786844163      1.70732267821014      0.90392101393127
  C   3.18774440749322      2.96202286343949      1.72589827164107
  O   1.83571660785818      3.34918606941766      1.90829330237170
  C   1.10002157004154      3.55907439030720      0.70613007302626
  C   0.53223009782402      2.26618856304799      0.12206984879868
  O   0.01424141716513      1.40616346913633      0.88138460466510
  C   0.69007326504093      2.05273836349052     -1.28753044088171
  O   1.08645050357347      2.89534696600915     -2.12701098229637
  C   0.52740733475809      0.60261030481477     -1.75082358289931
  N   1.89121894807320      0.07056284262108     -1.93628923282113
  C   2.76614868213483     -0.09207727510091     -0.94464203076683
  N   2.33553207101016     -0.45091118348801      0.31778941348580
  C   4.10615402073016      0.35395949408464     -1.06116128195325
  C   3.98873081245312      1.74947098834812     -0.44894698301957
  N   4.43182514209515      2.85092733643000     -0.89567160734854
  H   3.74365491613875      3.75266362797494      1.21500710429120
  H   3.59073736156899      2.82982845672823      2.73164055917244
  H   1.71743260691169      4.05756871219949     -0.04749051661741
  H   0.27774807136372      4.22223118542415      0.98794864286515
  H   0.03148479727255      0.55510919557269     -2.71947401832068
  H   -0.02321730540251      0.00924645446377     -1.02561231074273
  H   2.37123332283330      0.42143795963504     -2.75890143915392
  H   1.34195455215709     -0.64493923073241      0.43104594984565
  H   4.68653105229799     -0.19978338325207     -0.31425548900235
  H   4.81949873179266      2.67752963466786     -1.82260070466835
