23
Coordinates from ORCA-job 10085optt
  Br  1.25717146858202     -0.29705611854804     -0.31442929713922
  C   3.11620100294428     -0.10846976981475     -0.04908919883945
  C   3.70047907684302      1.17049559386288      0.07523119603238
  C   3.10420566069233      2.54143158883330      0.10389415707383
  O   4.22702797799875      3.42744303810506     -0.07376550471870
  C   5.44892726720585      2.75121359032896      0.08563046561409
  C   6.32314344384673      3.02094255092569     -1.12573665485603
  O   7.50982567952351      3.21142476850442     -1.09508210198433
  C   6.16951782600180      3.08822551319766      1.38208403868924
  O   5.70237959455183      3.73323787203350      2.27618951020383
  C   5.09275306838699      1.28476085080817      0.09420025458757
  C   5.91553014380165      0.19835810790657      0.04937680038965
  N   5.30517938937665     -1.05068079319372      0.09051568949157
  C   3.91291314073519     -1.28355737536338     -0.06899517990746
  O   3.54705481762606     -2.45129021078727     -0.20245990413895
  C   2.49344080649960      2.83856285641786      1.45997787732860
  O   1.31094526324600      2.91091968662368      1.67088328063212
  H   2.35992441410722      2.72712492956828     -0.67561639917862
  H   5.74577150928299      3.01049623263347     -2.06952448600033
  H   7.17434563864166      2.63481368210874      1.45488463620037
  H   6.99249056683437      0.23924132605051     -0.01831535711613
  H   5.85205324555767     -1.88795353900290     -0.01844840696227
  H   3.24571899771370      2.95831561880126      2.26159458459824
