26
Coordinates from ORCA-job 10089optt
  Br  1.83585969465502     -0.42306693541140      0.91777304563015
  C   3.53809876647463      0.33011198748490      0.28310872383860
  C   3.62088276316721      1.69172576208934      0.08331211308886
  C   2.53150494753679      2.68352698136222      0.25970037438920
  O   2.84095722766845      3.61530278638816      1.33528840115592
  C   2.62181875018837      4.97351482064989      1.10450987436666
  C   3.93977286845045      5.76666456987413      0.95994730114624
  O   4.49995865304402      5.72759099526327     -0.34967035111118
  C   4.63498472040798      4.50413181369895     -0.98881199733663
  O   4.27240909486723      4.41213478458041     -2.12885536392124
  N   5.22448281933486      3.54298638693079     -0.23718245753268
  C   4.91338741565918      2.15688859625691     -0.40044012326937
  C   5.92605539137276      1.20513546735795     -0.58816471084568
  C   5.66849951280055     -0.11969537551696     -0.36412703718725
  N   4.44944203707970     -0.59097279398296      0.09174569446711
  C   3.70514188121971      7.18102742118512      1.26872581937361
  C   3.47249589006652      8.32014597137556      1.55517821068271
  H   1.58868041253464      2.19693213040231      0.50078355140688
  H   2.40510864560837      3.26786142647751     -0.65918802522248
  H   2.09050698461796      5.39159382400657      1.96432367951350
  H   2.01951358841875      5.15806245098367      0.20765035115924
  H   4.64150079042739      5.37116831677002      1.70336903131843
  H   5.45525069759030      3.82999531640283      0.70823628527246
  H   6.90819855852225      1.52345525807054     -0.91870165594939
  H   6.42310406044640     -0.87563127311515     -0.54455455221165
  H   3.27338382784043      9.33540931041531      1.79904381777797
