26
Coordinates from ORCA-job 10082optt
  Br  1.37426753410653      1.31780151024397      2.57132615666559
  C   2.33008722718377      1.20401429325581      0.91137717234769
  C   3.46402775635704      2.05434689043795      0.68425534294741
  C   3.31229034101544      3.51643681920075      0.91051154664085
  O   2.47269456103158      4.16425468593250     -0.08840694399317
  C   1.09720699089303      3.88852212887057      0.00569416680238
  C   0.58076792136622      2.74527146244775     -0.89647121833496
  O   -0.33203484582530      1.94680713873572     -0.11771155237909
  C   -0.46162563445697      0.60321524652310     -0.08515497108111
  N   -1.59337559451103      0.04738711944698      0.00026977525858
  O   0.62709678227402     -0.18698302465655     -0.05968088716300
  C   1.90030101087825      0.35928569762185     -0.07011344265168
  N   2.60326605952520      0.03754469453321     -1.16197389927811
  C   3.82586235407002      0.59714217003713     -1.24747799179221
  C   4.28654895244201      1.59538428888137     -0.41779824982949
  C   5.54295450021913      2.21173688604986     -0.68527348385221
  C   6.59283521283492      2.76408746915835     -0.89982748427006
  H   4.27170946829126      4.02375567552350      0.81593677260859
  H   2.88131930153838      3.72823528131948      1.89451314042882
  H   0.58023512079596      4.81204501577893     -0.26942958559479
  H   0.81344367709955      3.64373272227757      1.03414248476047
  H   -0.01081763604755      3.14305673137132     -1.72435266785034
  H   1.40647835920040      2.17586119461342     -1.31161317992589
  H   -2.30565298558639      0.76751201280491     -0.05999834724672
  H   4.45232833265122      0.25627598324507     -2.06584617031902
  H   7.51678523265322      3.25026990634538     -1.09389648289854
