17
Coordinates from ORCA-job 1008optt
  C   0.92721965391525      2.81113040813137      0.45118570941174
  C   2.26030346932615      2.23413019223750      0.81406645103828
  C   3.42183639929594      2.48870130474243      0.10221337980711
  C   4.71766303571668      2.02443091551470      0.36888780083946
  C   5.88335792704022      2.26656980438244     -0.37012161130818
  C   7.20069827790131      1.74385457716029      0.03152030417590
  O   7.59674207448474      0.49122410874180     -0.63068084235033
  H   0.52401096558821      3.50525561846672      1.20571535228153
  H   0.14801977732653      2.05008229388736      0.29833574088074
  H   1.00333488621635      3.37595636706273     -0.48266314285737
  H   2.31127718482976      1.61050852087893      1.70329421067403
  H   3.31761777672487      3.12004460004562     -0.78388738170381
  H   4.82964279264949      1.39192137568151      1.25205974409275
  H   5.83658619653613      2.91142032938675     -1.24404682786719
  H   7.21856257484408      1.53638415395150      1.10822708042853
  H   8.01299480215446      2.44407395212710     -0.19365521477191
  H   6.79813220544977      0.23431147760122     -1.10545075277127
