27
Coordinates from ORCA-job 10080optt
  Br  4.65672626217066     -0.27414837880268     -1.59528472441752
  C   3.32397913379155      0.34372669633410     -0.37214467362917
  C   2.98802694676489      1.69461484699801     -0.38008715348914
  C   2.92403566764613      2.66571819946013     -1.46683264225796
  O   1.63998081095765      2.84022665305960     -2.16353781617066
  C   0.62826287791653      3.40516718849798     -1.38030047989401
  C   -0.28846114271707      2.32985219150309     -0.80330922393194
  O   -1.30887565459554      2.89033043086879      0.03220743201020
  C   -1.09409770717130      3.32556928339309      1.29090517968384
  N   -1.99694308448747      3.96108656350924      1.91048614740756
  C   0.22853061816591      3.11342994884174      2.00625518792767
  O   0.58423052448836      1.74993674709448      2.15817385898761
  C   1.59849582143250      1.22552453126497      1.42607334046986
  O   2.33462088799900      2.15510278329639      0.81021949370867
  N   1.73784719777318     -0.02317774993559      1.37920245717042
  C   2.84868916552371     -0.54312909853939      0.62039923279426
  N   3.28768524244989     -1.74012719326688      0.85779025003955
  H   3.60623196296420      2.35716384398118     -2.25587374960368
  H   3.19866081812043      3.66872696358299     -1.11263556387740
  H   0.02562704242788      4.06585830659025     -2.01198518689587
  H   1.05121669196411      4.01787509546057     -0.57500101435840
  H   0.26350503113262      1.54485813684387     -0.29669393669969
  H   -0.83406180947273      1.85477492981501     -1.61673704067653
  H   -2.80626520225354      4.08442609208166      1.30171046233962
  H   0.08300003517415      3.51989351551885      3.00361887770728
  H   1.01936836272515      3.66967660407328      1.50928304071091
  H   2.71198349910913     -2.13595713152480      1.59709824494453
