25
Coordinates from ORCA-job 10090optt
  Br  2.13565059791680      0.63500931487371      3.10037516108191
  C   2.80107379123539      0.73852405496300      1.34771406710384
  C   3.36989938798780      1.88038149929557      0.87772398027441
  C   3.25765200294826      3.23571447652736      1.52965881055680
  O   1.94017612168003      3.71165661493296      1.52187530880382
  C   1.26313282741957      3.77367250093727      0.25111140805097
  C   0.66373071793353      2.43938717161459     -0.17195362966122
  O   0.02479177266474      1.75376640251112      0.67468148520952
  C   0.91332642620963      1.95909623639010     -1.51263600664269
  O   1.47610854427479      2.59274315777917     -2.42045139100337
  N   0.54071127263980      0.58072747752391     -1.71574083514886
  C   1.68991073575723     -0.28808055152537     -2.03468126708731
  C   2.72058578947772      0.07214896048441     -0.98768185435289
  N   3.52834983192795      1.01939315775816     -1.32685091998985
  N   3.92214219748102      1.86631074149064     -0.36403786454386
  C   2.46753160752200     -0.32479320484000      0.42184669573926
  O   1.96383871266529     -1.39847568532089      0.70791952127242
  H   3.92892626884968      3.93382814852918      1.00503433233643
  H   3.55665158321449      3.18448207680432      2.57602251796423
  H   1.93546859836409      4.15743894669028     -0.52428588097190
  H   0.47281693692449      4.50780678692817      0.42611504403401
  H   0.09791501219793      0.26701390057718     -0.85402936107285
  H   2.07471918469248     -0.03908347764003     -3.02147507720990
  H   1.37293483240549     -1.32673452517452     -1.98920057236515
  H   4.26295524560976      2.73406581788967     -0.74805367237776
