24
Coordinates from ORCA-job 10093optt
  Br  1.01428159877150      0.25099888281033     -0.45585836090764
  C   2.90384082729930      0.13977893672576     -0.21959400964200
  C   3.47826646780444     -1.06137383639707      0.06761872825368
  C   2.76648058735639     -2.35697975244718      0.24781342171048
  O   3.28579051524128     -3.32370723384140     -0.66273755318864
  C   4.65085935870139     -3.55714084018108     -0.41969168343678
  C   5.50740286562781     -2.36361223006665     -0.00887315789107
  O   6.70216332732925     -2.59309518760235      0.13475332058777
  N   4.90011213292904     -1.15696022961922      0.16829302956206
  C   5.66414966783428      0.06168409225153      0.47372428947207
  N   6.84212478267873      0.04607752214241      0.99195869796933
  C   5.00006861409209      1.26224233520404      0.11837913743187
  C   3.65856520698534      1.33581085396915     -0.28008328729780
  C   3.09456073277574      2.57148662992104     -0.67779158903169
  C   2.64784837903693      3.64146108001051     -1.01193588151132
  C   2.86187330274518     -2.85023268664681      1.63739727848692
  C   2.95376554764099     -3.24011804514995      2.76731418270241
  H   1.71786296088265     -2.23523735609186     -0.00852904054723
  H   5.08242441214399     -3.94598148312028     -1.34150595729592
  H   4.78995138652440     -4.30896296048342      0.36572731476000
  H   7.17648222256278     -0.90259282875247      1.10844150601818
  H   5.58677310240426      2.16392284169107      0.20917686677376
  H   2.24446279107228      4.57834871724329     -1.30663644524682
  H   3.03788920955988     -3.56881722156939      3.77463919226838
