22
Coordinates from ORCA-job 10091optt
  Br  2.18256901274157      1.73717228019195     -1.05406046210105
  C   3.70340387754461      0.80258240410074     -0.41949801207814
  C   4.92335529061009      1.49560776301818     -0.17452751135948
  C   6.02127311498373      0.62805783942622      0.17885573545760
  O   7.25807717742336      1.06721931092294      0.67517990184130
  C   7.57765096409809      2.29578551882611      0.18740590034834
  C   7.29521512813589      3.37567581109347      0.89470969009444
  O   7.23517826052088      4.60938816287231      0.28901464181247
  C   6.36672839661381      4.74457604408631     -0.76220589543103
  O   6.35096682144106      5.75134510027467     -1.38957491221224
  O   5.65880948501525      3.64617454215477     -1.07946897022203
  C   4.90373661933192      2.96369029641701     -0.09100134742721
  N   4.20874324667998      3.71515488379834      0.64999539009310
  C   5.87576506726176     -0.70836759622306      0.19838330327891
  O   4.70340537043061     -1.34641937616261     -0.09627757051016
  C   3.55818671930881     -0.61343692621448     -0.39511266713927
  N   2.48477833631754     -1.27230534706588     -0.63970279285359
  H   7.88490449043273      2.34418742079653     -0.85324883238956
  H   6.94543634427300      3.34148561553928      1.91674194337047
  H   3.68075875162135      3.14467324958420      1.30612103843104
  H   6.66348308047136     -1.37543992264129      0.50973958112960
  H   2.68957444474249     -2.26480707479573     -0.55646815213351
