29
Coordinates from ORCA-job 10097optt
  Br  1.00760424258032     -1.52035579391108     -1.13801165557436
  C   2.08031721184059     -0.16618943366962     -0.31385870607448
  C   2.47712276440311      0.98424441808083     -0.91718267516445
  C   2.05640891429920      1.40136190460264     -2.29237682405478
  O   1.05827952137938      2.43117179566921     -2.28312118839015
  C   -0.18902092266950      2.06525088614291     -1.73459003326453
  C   -0.43535241976208      2.51901597995481     -0.29245219082424
  O   -1.47302552692114      2.21028845612028      0.27086602143723
  N   0.53377344225423      3.27911177008545      0.23741918149689
  C   0.66017481281014      3.55243672295637      1.66214154955239
  C   2.06530202437799      4.08269015733326      1.96705762907225
  C   3.13843416514776      2.99603741375888      2.22291086883511
  C   3.02354586070250      1.80190135027337      1.31927470056501
  C   3.14331362680052      1.91860796878839     -0.08096875183948
  C   2.58079346818120      0.59823280831055      1.89492407075526
  O   2.37560495143529      0.29974813977998      3.05821584607948
  O   2.39470681704536     -0.48760818849743      0.95070512971608
  H   1.69273569994444      0.55176911646996     -2.87490844791180
  H   2.89983162494695      1.85243489719286     -2.81770169112969
  H   -0.33884973631349      0.98275296312964     -1.75013265461746
  H   -0.97045629896449      2.52248040798242     -2.34615626589528
  H   1.38360337860549      3.31150065928382     -0.30657443765493
  H   -0.09716572882274      4.28502098405147      1.94998064211000
  H   0.46242587351253      2.63497326572047      2.22465712154541
  H   2.01577962908023      4.73595828825610      2.84201612461077
  H   2.36983098582880      4.72143081983401      1.13062920274429
  H   3.04439744324750      2.64183115704129      3.25028490132279
  H   4.12371317615876      3.46953127047111      2.13265124557702
  H   3.53917099887106      2.82836981478798     -0.52369871302439
