21
Coordinates from ORCA-job 10107optt
  Br  1.14139768646383     -0.21859178799476     -0.01507769585849
  C   3.02428171656975      0.04522555087198     -0.02891957118221
  C   3.67298643806765      1.31229602912665     -0.03186633184647
  C   5.11376158555538      1.27303777642141     -0.03551940909166
  O   5.75187346672446      0.05337380372205     -0.03915459922383
  C   4.99203237580775     -1.07660201221565     -0.03828309085249
  N   3.70945263165102     -1.10561485426250     -0.03271378416591
  C   5.90314866346091      2.36365623956087     -0.03551370660345
  C   5.36665610076996      3.71102614661440     -0.03172792160862
  N   6.10426899921801      4.77313134587865     -0.02926052421528
  C   3.90132577311219      3.79149023135888     -0.03144676616604
  C   3.13363438312843      2.61503347045006     -0.03160999127863
  O   1.77141075113710      2.63936487991328     -0.03222976568312
  N   1.05509406556860      3.80222008681740     -0.03259277443897
  C   1.71641834421710      4.88614787389823     -0.03219382916124
  C   3.19318274656625      5.04286902800544     -0.03128417305665
  O   3.63447059956675      6.18223309404737     -0.03098383404333
  H   5.59536987267358     -1.97164772528202     -0.04188674968229
  H   6.97780133827966      2.22990327493345     -0.03799649169904
  H   7.08243422702558      4.48379257898306     -0.03018104826502
  H   1.12199823443603      5.79365496915172     -0.03255794187728
