21
Coordinates from ORCA-job 10105optt
  Br  1.14267799470349     -0.37656603937408     -0.48427113732504
  C   3.00450091563995     -0.13564620005080     -0.20561524606123
  C   3.61164553298826      1.12514991971411      0.00044680509092
  C   5.02145069962934      1.10731813188951      0.12572111700212
  O   5.75417934199990     -0.05701576548989      0.08854341870832
  C   5.02264320581352     -1.18958381700872     -0.12526809641931
  N   3.74718723985301     -1.24910634541894     -0.26641553826105
  C   5.53714301210920      2.38862452343245      0.27369901605078
  C   4.44287668000048      3.26024936399738      0.24130240535207
  C   3.26316879276185      2.50716513164013      0.08475678730318
  S   1.74027311713727      3.27248374226730      0.03609082859535
  O   0.78572290953761      2.67117851557661      0.91801823441139
  O   1.94113686440186      4.69582683583676      0.06455955876605
  N   1.08795109580166      2.97541463144731     -1.49480027207617
  C   1.31966111332141      3.75498956386251     -2.58784836266657
  O   0.91150057033230      3.50360303438102     -3.69817555243612
  H   5.64431228674719     -2.07172721088405     -0.16473856161435
  H   6.57604209425564      2.64987396142155      0.39536238186465
  H   4.46303069876353      4.33328797846484      0.33946969921436
  H   0.64315825784061      2.07230973825498     -1.61978000174277
  H   1.90173757636190      4.65317030603999     -2.34405748375658
