24
Coordinates from ORCA-job 10106optt
  Br  1.57118479737249      1.45866130862464     -2.00020818649125
  C   2.98380145509409      0.77927293843776     -0.92404695851119
  C   3.92372224724773      1.61734335796696     -0.25502344762603
  C   4.88677559732131      0.99157351488272      0.50831082616310
  O   5.07944429340666     -0.37381070663322      0.41092919769738
  C   4.11465709063332     -1.06839534756803     -0.27821956185158
  N   3.10998609174740     -0.54805996374123     -0.89309461143081
  C   5.82591613051317      1.79110037025480      1.20677898761343
  C   6.93691998641249      2.04474805285734      0.29280203377901
  C   8.12932004360315      1.11894406518643      0.21860407964572
  C   9.03869583686213      1.25169524618279      1.35607472550473
  C   9.80002287041320      1.37628424664109      2.27335618939760
  C   6.75297815752907      3.04887396203077     -0.59434803623140
  C   5.44878609728663      3.70196683134919     -0.83331935173133
  O   5.40301899233656      4.72235648586284     -1.49218872315938
  C   4.07402109087791      3.09333731446289     -0.39705756118352
  N   3.12276751298629      3.93082027155571     -0.29370661264909
  H   4.27264123037099     -2.13527971459732     -0.23423668644844
  H   5.35794778218247      2.72370470210075      1.50323567794842
  H   8.68693957602540      1.28549859763022     -0.70560570233090
  H   7.74253331224846      0.09413614479010      0.19966520398336
  H   10.46210499376146      1.49273458364088      3.09596152012609
  H   7.54597551788114      3.40729267359673     -1.24526874453012
  H   2.25783929588629      3.44220106448516     -0.06139425768379
