22
Coordinates from ORCA-job 10103optt
  Br  3.15298573393777      1.11902978641083      2.79201580512224
  C   3.79060453555400      1.04803881375596      0.93655652154964
  C   4.88661168071136      1.87710818705377      0.55610079734893
  C   5.83023181435017      1.25603644941705     -0.27932608446035
  O   6.74972357364752      2.05074983726393     -0.92963078101627
  C   8.01067756776878      2.12998781446522     -0.31469207964775
  C   8.63666533396907      3.50202503137910     -0.50139379094360
  O   9.82169117274437      3.61702975619855     -0.63992464890301
  O   7.88154807383673      4.61545228031741     -0.47753515704415
  C   6.48896919326156      4.63398325214159     -0.20813831509742
  O   6.21859756335533      3.82384864111951      0.89098017674044
  C   4.92306968890149      3.27292829614216      0.90732376657855
  O   4.00572220892331      3.97089084474443      1.24636064529665
  N   5.87442631515448     -0.00838794065948     -0.57506961741493
  C   4.88321792699380     -0.81731293187554     -0.08073935127397
  N   4.84752829761349     -2.08301539963666     -0.13400715646029
  O   3.75468664149076     -0.21793902135306      0.46479631029984
  H   8.70312717800565      1.40650171403467     -0.74500078105614
  H   7.93382287008674      1.95343732837400      0.76196496699219
  H   6.27378562109142      5.68029440521987      0.01005819010484
  H   5.93418412566497      4.29810957954705     -1.08512040464068
  H   5.69712288293710     -2.38779672406044     -0.60157901207477
