23
Coordinates from ORCA-job 10109optt
  Br  4.61392504189246     -3.34164064233729      1.37239699824143
  C   5.60978340020859     -2.05848140927018      2.33898993226460
  C   6.08957039956896     -2.22225981498597      3.57586102159400
  C   6.83994809617860     -1.00660287498887      4.06852734313925
  O   7.76504229857027     -0.52995032189374      3.06933204619235
  C   7.43664208690030     -0.86486909109839      1.81204669754661
  N   6.00350865526089     -0.90696426068574      1.62513350903467
  C   8.33452410102365     -1.31069555131570      0.94113121021619
  C   9.67394873669064     -1.88627969439237      1.36943896037900
  O   10.68199276565113     -1.68645402294050      0.72161560527752
  N   9.49440653505630     -2.81023889708834      2.35692363083141
  C   9.52711650537945     -2.58128802183611      3.64620680115385
  C   8.82273480868138     -3.29920666908024      4.64765551006956
  O   8.86179779193744     -2.99264890773246      5.86957047590313
  C   7.78043807613403     -4.29694126050361      4.22888146720872
  N   7.99420898598448     -5.46552038129903      3.82146972318115
  S   6.03403141511741     -3.71416565024614      4.50104206963020
  H   6.13071504488859     -0.19811747226615      4.27108282637469
  H   7.42387428197606     -1.23331838765490      4.95759731136224
  H   5.74001899993465     -0.94576187576532      0.65081094087394
  H   10.04725859949341     -1.70469864217075      4.04298157206434
  H   7.12617601819306     -5.95241057065643      3.59670012305772
  H   8.03933735527809     -1.50448557979173     -0.08239577559662
