25
Coordinates from ORCA-job 10116optt
  Br  4.16731209170686     -1.18937246405565      1.84227113892383
  C   5.99603584129962     -1.79540346488060      2.40587581328325
  C   5.96444942170876     -2.93492802878056      3.37752890878330
  C   4.88874285736182     -3.70996731182148      3.54666258702302
  O   8.74921876499328     -0.83505386443125      3.22810482871003
  C   8.35404604090511     -1.16446236291622      2.10092586711218
  N   6.91468914017378     -1.16495267486635      1.89933955142457
  N   8.99163050244018     -1.40164731650772      0.97808298253193
  C   10.33710936110093     -1.50992882415247      0.91983446599737
  C   11.28634362673430     -2.03525050695099      1.81144497605262
  C   11.19451130868362     -2.75029653387817      2.96918882270412
  O   10.00262845147634     -3.20594069469538      3.48140581177327
  C   10.00617178707387     -3.72031596360852      4.70802957929762
  C   8.91437497239261     -4.11752066313044      5.36923730931583
  C   7.51202188731828     -4.09869061541048      4.89950742676536
  O   6.71926471997369     -4.93054817227121      5.31530735090557
  N   7.19530880125797     -3.10675636622570      4.01563302931447
  H   3.99628454791857     -3.49816038397963      2.98302886171311
  H   4.91397832991824     -4.54293261499122      4.22678866094539
  H   10.75581395883820     -1.18383670325487     -0.02974895884231
  H   12.31611260870377     -1.88797471642444      1.50020092448691
  H   12.07159533814929     -3.05981278159940      3.52419710838856
  H   10.98816364223083     -3.83068005050329      5.16258141638243
  H   9.05796045581742     -4.60245581041493      6.32344908751448
  H   7.89123154182246     -2.37011111024900      3.87512244949303
