23
Coordinates from ORCA-job 10113optt
  Br  3.89725473043699      3.24320776029061      2.54829876788759
  C   5.10951607649133      1.74772116770447      2.34474228533290
  C   5.01556610631129      0.60326077392081      3.18744873638536
  C   5.47263716740043     -0.56716991386707      2.37778270410278
  O   6.81198886075421     -0.31166397006285      1.88400232487577
  C   6.97297527161452      0.92925370942651      1.35084760278065
  N   6.01032000577630      1.87312073017338      1.40617155869312
  C   8.42011480497820      1.39142346955927      1.43754102811871
  O   9.10969833252363      1.64641621253839      0.47571992860278
  C   8.91218345182928      1.49736420453404      2.84055200374550
  C   7.95852653329347      1.69799818716724      3.76101025255688
  N   7.95400584314592      1.83635606906843      5.12083492121071
  C   6.77338540133405      2.00663184526292      5.84936364976349
  O   6.79497058836248      2.31900833168671      7.00371055794533
  O   5.63868258222128      1.89550292097020      5.11782934481816
  C   5.34839882337144      0.60610149111760      4.57754380141921
  N   5.52178284490068     -0.34610450161994      5.41130395295360
  H   5.55060325106567     -1.49320030785471      2.94286065078435
  H   4.83345587457211     -0.73260435458423      1.50635015106298
  H   9.97818305919324      1.45996366656445      3.02934919813639
  H   6.96345858001736      1.80867418722671      3.39251585521014
  H   8.79659033575896      1.84571038423712      5.67308860231410
  H   5.26170147464703     -1.23297206346009      4.99313212129946
