23
Coordinates from ORCA-job 10123optt
  Br  1.11529109373265     -0.09463705759480     -0.47401665776075
  C   2.91327294100565      0.02007668685287      0.15628694779448
  C   3.64618741865794      1.21149280644930      0.00912304647618
  C   3.17801324852980      2.56227905362073     -0.09729472625380
  O   2.04231381554906      3.02391159500116     -0.12304511132897
  C   4.42071045276808      3.45187868733259     -0.17548921265442
  N   5.52856249051943      2.51926972336254     -0.19547961144814
  C   6.87088268294152      2.97159598403776      0.09868847074870
  C   7.83654041667962      2.42559692675296     -0.94282210209984
  O   8.55852322935458      3.12948429959058     -1.60122401288684
  C   7.80516898018510      0.91429963690899     -1.10575081184854
  O   7.29166271342469      0.29978898083018      0.04363328914395
  C   5.91025948066558      0.13385611333401      0.07211996705879
  C   5.06969149757558      1.22892138177949     -0.01319049743144
  C   5.46495869811747     -1.21498296572713      0.20441961491521
  O   6.17684975721951     -2.20074340854567      0.25886207612443
  S   3.68691372931632     -1.52693905181316      0.33779722041997
  H   4.45538251487852      4.10291734341915      0.70548341480960
  H   4.39665469013959      4.07898058854384     -1.07065776774781
  H   7.20149891737960      2.67068455293967      1.10046663018861
  H   6.89256654677276      4.05726966075289      0.02860561231003
  H   8.82825187197068      0.56656815174807     -1.25850084022970
  H   7.21484281261587      0.66543031042390     -1.99601493829970
