21
Coordinates from ORCA-job 10124optt
  Br  0.89686581257369      0.04372744875342     -0.25303461043162
  C   2.77581284882261     -0.11417373705293     -0.03191511339696
  C   3.47728459361596     -1.31435152449832     -0.00574162379509
  C   2.77310129387135     -2.61219984532838      0.06325817497786
  O   1.58806694597478     -2.74909734044146      0.28570014786155
  C   3.53682457093907     -3.90694751295243     -0.19786169478370
  N   4.95701715082274     -3.76622601925938     -0.08283194999969
  C   5.87719032058291     -4.79230426593594     -0.07731959917051
  O   5.66812795727191     -5.99168365115065     -0.15805804839653
  N   7.05163225681139     -4.11063545485000      0.04083169783613
  N   6.90274820377590     -2.74580901568217      0.10269137196107
  C   5.61263560218106     -2.56483593701370      0.02395885790736
  C   4.90683228735468     -1.30062327248446      0.01448543793800
  C   5.71506574571103     -0.15942044395545      0.03732811992414
  C   5.28088926909281      1.17615241101489      0.04269822283699
  O   5.95306570642035      2.19458882316665      0.06287518547106
  S   3.47872063760463      1.47493572439700      0.00393340784055
  H   3.26712708935742     -4.24262583363821     -1.20369285050827
  H   3.17699631697590     -4.65811707569404      0.50395787423450
  H   7.96278213859374     -4.52659573680458      0.08174955961631
  H   6.78821325164602     -0.29375774058984      0.05998743207685
