23
Coordinates from ORCA-job 10120optt
  Br  1.18273742047558      0.12941502662550      1.00608622107347
  C   2.81330717022750      0.03056172958338     -0.17992043670367
  C   3.54534844885021     -1.18093644753854     -0.19848782848121
  C   3.18901404173216     -2.56660466279656     -0.21236092460584
  O   2.10680339142813     -3.12787329373607     -0.22818183868406
  C   4.51980739902493     -3.37008434203440     -0.17289852071847
  N   5.54095140363081     -2.33239497774254     -0.23066187824737
  C   4.94778731117618     -1.07189481924843     -0.17728756300056
  C   5.68665051421083      0.05827431064865     -0.07373909336438
  C   7.18444544058413     -0.04592126448189     -0.01290339203954
  N   7.68092225929783     -1.41407369136127      0.18241104538738
  C   6.87518078163756     -2.39021912023155      0.05860511190335
  C   7.41323094117004     -3.73630490973527      0.23169885246259
  N   7.82392126684725     -4.79818274733980      0.36232768655331
  C   4.96159991311843      1.30336129697496     -0.04784497926888
  N   5.44031685405859      2.50064344214392      0.01115691727534
  N   3.57166896295043      1.18299300857730     -0.13410628553078
  H   4.58003105634275     -4.05224379471552     -1.02193367344761
  H   4.57608100775255     -3.94895199838204      0.75220446427943
  H   7.59043183256141      0.56122654744392      0.80407064839770
  H   7.65875323461893      0.33942127605964     -0.92648006216054
  H   6.45454273697332      2.46766379241225      0.04085122485435
  H   3.09046661133029      2.07012563887438     -0.15060569593401
