24
Coordinates from ORCA-job 10131optt
  Br  0.83192208915367     -1.08300575187426      0.53758016179339
  C   3.21130130612681     -0.09720499879928      0.13785416002219
  C   3.78479889000099      1.13661328430081      0.10436851711034
  C   5.10461470070242      1.23223380742450     -0.42501072689656
  O   5.62836688546018      2.47809014600522     -0.69120767367473
  C   4.92068623175033      3.56338193033026     -0.26816364317517
  N   3.79349115764285      3.60475556226741      0.26962195986136
  C   3.03150228169234      2.38062104278641      0.48139325997134
  C   2.33978391303535      2.46157847073718      1.86201784242047
  N   1.16127470284390      3.15608976501561      1.27090643093828
  C   1.59780234520454      2.62724785141348     -0.05470996812963
  C   5.90720714967320      0.19223058303580     -0.75987285420753
  S   5.51081858797408     -1.39380502197744     -0.26241626354144
  O   6.02856823444139     -1.65552837077908      1.05195614678348
  O   5.79908856274276     -2.37763956109745     -1.27257201619361
  N   3.85388005410855     -1.22962227629462     -0.17860547041815
  H   5.49323351161895      4.46438427033948     -0.46485423974520
  H   2.86956484642099      2.99907062513190      2.64901280019284
  H   2.04788758563096      1.46441247094597      2.19334837967065
  H   1.37732384186456      4.14849144675187      1.27402701791395
  H   1.50845602395533      3.31733832772582     -0.89401163151134
  H   1.09432808013819      1.68350991009432     -0.26206803889541
  H   6.87250706949816      0.31909421230583     -1.22441763254900
  H   3.30959194831938     -2.08733772578978     -0.21717651774053
