21
Coordinates from ORCA-job 10134optt
  Br  1.73749469791199     -0.94749761116899     -0.12410959129662
  C   3.53677773358559     -0.39729327667672     -0.02115979061691
  C   3.92485083905377      0.89178783908626     -0.01525158396144
  C   3.24851921266266      2.20190428951568     -0.09634657109511
  O   2.03864742207170      2.44488861992313     -0.19873060411140
  C   4.37248073625833      3.11029629149716     -0.03026183557829
  N   5.56840704617867      2.52010650155626      0.06388138810902
  C   5.33928151583915      1.18217628279516      0.07699445798208
  C   6.26775174601603      0.14990254322849      0.12499909527790
  C   7.73180983008659      0.14678369745879      0.20972513447354
  C   8.34471931716805     -0.51613089679306     -0.77844016956380
  S   9.23864418568760     -1.93690585864572     -0.30506752827967
  C   7.73259480207074     -2.81105271652198      0.41895862471942
  O   8.03514175296766     -3.88193237096479      0.89900936173977
  N   6.47555515318883     -2.34488138595488      0.33512526970629
  C   5.82558654759259     -1.19897580832654      0.14571386208522
  N   4.44637341921742     -1.39383395443369      0.05475272554523
  H   4.27885242860409      4.18791063798675     -0.06012626202634
  H   8.19437149134275      0.20057583131774      1.19174239942971
  H   7.88480133637683     -0.54499240465703     -1.76095861236287
  H   4.15133878611889     -2.35883625022203      0.10755022982425
