21
Coordinates from ORCA-job 10139optt
  Br  0.99678381701036      0.01853332303853      0.07703830805653
  C   2.90430681164935      0.03888464714305     -0.01509059041957
  C   3.58819290963294      1.25970540882758     -0.07184256645957
  C   2.92503706691541      2.59310713782205     -0.18525127730079
  O   3.77101016872356      3.64772258136936      0.29845892908467
  C   5.08963558132463      3.49774358839546      0.06310039234336
  N   5.71919124452948      2.43452010450735     -0.18970769318059
  C   4.98687354024455      1.21964018893397     -0.15166934295922
  C   5.69081501327544      0.02977099826675     -0.15983410700000
  C   4.99603457053504     -1.19807068271998     -0.09402264585368
  C   3.57197270505208     -1.16444947908340     -0.02279935020057
  S   2.89534752148000     -2.77093874374665      0.02792533134223
  C   4.47334766381060     -3.51391450102884     -0.09282283713015
  C   5.48778362054566     -2.52133333848399     -0.09750823220280
  C   6.86706627411895     -2.81534710526771     -0.11983638069673
  N   7.99808129728014     -3.05805814129852     -0.13423320002407
  H   2.01112313906303      2.64575733337567      0.40283082845526
  H   2.67111067800739      2.83762535195405     -1.22739009291685
  H   5.61028183109393      4.44716646315217      0.15085701427892
  H   6.77150606703719      0.05464934218275     -0.21040882826376
  H   4.59449847867018     -4.54771447733965      0.18520634104739
