19
Coordinates from ORCA-job 10137optt
  Br  0.92948299409018     -0.21538336351203     -0.06433261986088
  C   2.79488641438859     -0.01827354601800     -0.07442643915890
  C   3.47036439305045      1.16703641052255     -0.07358472014174
  C   2.97838675491418      2.56157558575335     -0.06602252616192
  O   1.79866700792352      2.95847129032890     -0.05888278723526
  C   4.19800809317875      3.32820484477304     -0.06886012650993
  N   5.32581308104081      2.61953042065528     -0.07641995946493
  C   4.95127048749038      1.31139993227627     -0.07969164007128
  C   5.64622995529029      0.12482282400900     -0.08640786510516
  O   6.93910528679720     -0.34459128697124     -0.09252014173332
  C   6.93496657809050     -1.79888396135004     -0.09616633390355
  O   7.98340069920712     -2.37042500093504     -0.09987690691875
  C   5.52710135215536     -2.18348935888308     -0.09316536755164
  C   4.86459151899466     -1.00054526742921     -0.08728349817224
  N   3.53685777774610     -1.18445499823134     -0.08206777342878
  C   3.41851419794930     -2.58966875687873     -0.08545190039828
  N   4.58444007661914     -3.19421670444238     -0.09185891749374
  H   4.21904408021678      4.41085725167901     -0.06506539137261
  H   2.45386925085665     -3.06796631534631     -0.08291508531709
