26
Coordinates from ORCA-job 10132optt
  Br  1.15494261620615      0.33640060405537     -0.52982310853282
  C   3.01623969025891      0.02592898471496     -0.18226055153775
  C   3.58399977686134     -1.27005770759488     -0.37494563236321
  C   4.95858939002298     -1.29422472240305     -0.05073881153390
  O   5.43055185344178     -2.60282136267158     -0.03813117729713
  C   4.37375560273538     -3.44451760855691     -0.21879121518906
  N   4.49000934517015     -4.69613913503105     -0.33111859500939
  C   3.06036385513803     -2.67008554464867     -0.23371915486832
  C   2.30875047098061     -2.87659936971563      1.09931053150587
  N   1.76404652847178     -4.21538652162768      1.21927307538947
  C   1.45760581771967     -5.01975452027987      0.15986402806130
  O   1.12498073330604     -6.18926895410368      0.30414323149637
  N   1.49910956836694     -4.41989461514691     -1.06667223316813
  C   2.13688536372285     -3.14092600985608     -1.36069483816248
  C   5.70543619539295     -0.20900770597546      0.26978302921175
  N   5.14490162628820      1.05103061017134      0.32008112154434
  C   3.81801566389079      1.10641869863213      0.10369221966780
  H   5.47291483310227     -4.96103023574667     -0.27749273401279
  H   1.51735799902677     -2.12303888991973      1.14644257876225
  H   2.99207761533918     -2.69144171240683      1.92948752877181
  H   1.87837650385686     -4.72546887206661      2.07754752743696
  H   1.44253037609607     -5.09610920299329     -1.80861494337654
  H   1.38453030719390     -2.36612815302655     -1.52293389687201
  H   2.72092129849564     -3.23828551564731     -2.27611471650680
  H   6.76191497989640     -0.30069620750236      0.49042032169385
  H   3.36319198901827      2.09110366934706      0.15900641488855
