25
Coordinates from ORCA-job 10147optt
  Br  1.08356580376907     -0.25256246651600     -1.08073852409628
  C   2.88266396398917     -0.22245071038524     -0.47859179001219
  C   3.51390389192394      1.00981569320502     -0.22935901421097
  C   2.79521789353613      2.32083093493192     -0.12880267728932
  O   3.67122608943790      3.42446118055148     -0.42123898815913
  C   4.95086127266463      3.29847712125086      0.00851215096356
  N   5.56891061317879      2.23621240627167      0.29045178920354
  C   4.87505444552486      1.02300444081443      0.10176465354740
  C   5.56452641319142     -0.15505200164174      0.20803509040040
  N   4.89744712420024     -1.37980939054411      0.06516575093601
  C   5.70466719078309     -2.56116158200663      0.09117580941861
  C   6.10868608216524     -3.01844795463623     -1.29700853757601
  O   6.55426476311361     -4.11263690157743     -1.53633511993277
  C   3.56265715437192     -1.47108416176770     -0.41990135024819
  N   3.02049870538365     -2.60082954097899     -0.76302185648601
  C   2.21469315604866      2.52376295792407      1.21536784109075
  C   1.75250828245335      2.64349339743222      2.31573584269877
  H   1.99089507387420      2.38374564986544     -0.86133483504379
  H   5.44055461174516      4.26590211260448      0.05590315546578
  H   6.61929839147922     -0.18651408860623      0.43275967887917
  H   5.20069144781661     -3.38670808874355      0.59943863955439
  H   6.61327031519793     -2.35269152384322      0.66390396044560
  H   5.94897820503913     -2.26310571495445     -2.09010360975301
  H   3.64519135390054     -3.38816332617464     -0.64757971626604
  H   1.34676775521141      2.73251155752455      3.29380165646971
