24
Coordinates from ORCA-job 10144optt
  Br  0.93576341645802     -0.22792984581457     -0.39051079248824
  C   2.81957780926596      0.01141491513214     -0.40786796913653
  C   3.42103302396830      1.17984627337246     -0.15833630342317
  C   2.70166511455521      2.46266918236305      0.16163376615529
  O   3.47716068351616      3.57882378226801     -0.25680853437231
  C   4.82261218751759      3.49443765230878      0.04315495235818
  N   5.49066549657066      2.40317324358232      0.11298670416779
  C   4.85426116577290      1.21114066255682     -0.07841089542446
  C   5.53893724075274     -0.01342704041773     -0.16543363825088
  C   4.87326042191088     -1.21857676886418     -0.41735641229231
  O   3.46426366227136     -1.15278017070076     -0.62670604419891
  N   5.39906304583237     -2.39398903334910     -0.50448632994778
  C   4.54781129957719     -3.51374589573547     -0.77279209439391
  C   5.36784510449383     -4.77919381544554     -0.76800340488272
  O   4.91868547922406     -5.88932231291195     -0.89770467994372
  C   2.40074655132949      2.55803738741954      1.60310689842895
  C   2.17201253081029      2.64718099946536      2.77575707714413
  H   1.76456748043870      2.52600553055592     -0.39190346250227
  H   5.27595687193808      4.46857068336157      0.15757918502694
  H   6.61128652975444     -0.05315402095565     -0.05379263164183
  H   4.04217681120964     -3.46666643482261     -1.75111605167940
  H   3.73676085185742     -3.65066723155768     -0.04155675774354
  H   6.45451815642569     -4.61214389567262     -0.63232763857174
  H   1.97936906454892      2.71129615386185      3.81889505761241
