26
Coordinates from ORCA-job 10148optt
  Br  1.20570149599455     -0.11746357849773      0.16932837542820
  C   3.14886130197268     -0.02572627959282      0.12295069300595
  C   3.74782334132196      1.20000101997597      0.06632450248003
  C   3.08172859508103      2.53343033238332     -0.04493122129342
  O   3.83381806388837      3.54517140011660      0.63432023509830
  C   5.18361467230462      3.48895992962487      0.40954315846221
  N   5.85201453147092      2.41897748295351      0.13238892951243
  C   5.18642008071931      1.23782488239575      0.04252457358619
  C   5.85222793448241     -0.01845548092102     -0.00739138781166
  N   7.25738991484835     -0.10515481767828     -0.02904311072277
  C   8.09930405290880      0.72151308776071     -0.71982325970162
  N   9.37190116279957      0.64348437159685     -0.77405608787100
  C   5.09784882715281     -1.17856090361625      0.00737514818773
  C   5.77007454595427     -2.53100778778173     -0.00715142478860
  C   6.29173211752051     -2.72037367676844      1.38500340093050
  O   7.46453114869945     -2.68793693790263      1.69059231829286
  N   3.73514863249569     -1.20735426213716      0.11270589241084
  H   2.08875685506753      2.53572881565878      0.39712281822354
  H   2.99618018676573      2.83234034567236     -1.09789359712071
  H   5.66800792655940      4.44800965310484      0.53090771982650
  H   7.68528250681844     -0.87674564698618      0.46723474212372
  H   7.58674412952336      1.50668145199541     -1.26481544915638
  H   9.71137513895960     -0.12903129064570     -0.19784324000531
  H   6.59480744312140     -2.58533257345702     -0.71867591506789
  H   5.00752858380976     -3.27584439587005     -0.23538539570712
  H   5.51317680975931     -2.81613514138397      2.16368758167746
