23
Coordinates from ORCA-job 10140optt
  Br  1.24034549962152     -0.04117630327406      1.12906870810808
  C   2.84101193031204     -0.25269213356181     -0.16245597968682
  C   3.56612069414249     -1.46047305625338     -0.11912269114225
  C   3.13532292193094     -2.82801270358359     -0.15159139880009
  O   2.02259836247373     -3.32188194471655     -0.18329167526596
  C   4.42431259565952     -3.67450166696708     -0.13795325093369
  N   5.49113667003402     -2.69902024275574      0.01315181908993
  C   4.97981658051409     -1.42884938493130     -0.07154462041658
  C   5.69951306380791     -0.25131292064913     -0.09233726902235
  C   7.20021956684085     -0.17035732555774      0.00556715847714
  C   7.73642288434593     -0.65267450581722      1.28878344743398
  C   8.15211420250943     -1.04368424425351      2.34109171091612
  C   7.87578479957194     -0.88088043163201     -1.09919900738611
  N   8.38186717255645     -1.45780145773807     -1.95212813768863
  C   4.98867994281819      0.99064937002289     -0.18566884692566
  O   5.51384611366478      2.10448522115164     -0.24965539696141
  N   3.59989243646839      0.89185951589880     -0.21565159346509
  H   4.49789297804053     -4.22882305365954     -1.07725910832877
  H   4.39502968413985     -4.38646495544688      0.68876276579115
  H   6.41546852762007     -2.89112240439416     -0.33964805837907
  H   7.43991731338543      0.89434465858591     -0.09910214800308
  H   8.50437503913105     -1.39344088268540      3.28078964727980
  H   3.12831102041068      1.78283085221795     -0.27360607469063
