23
Coordinates from ORCA-job 10143optt
  Br  1.01572442721289      0.07093916601108      0.09218925594765
  C   2.89385944837368     -0.05034881664863     -0.07285175266010
  C   3.56535626418656     -1.21517827852916     -0.05471619130840
  C   3.08447683290452     -2.62996228677204      0.00957775438260
  O   4.27165344348535     -3.41298389054964     -0.00643080609557
  C   5.40105689526162     -2.59844888660175     -0.06112564849067
  N   6.57569584492753     -3.07906141460697     -0.07667978973911
  C   4.97205139889484     -1.22271703750538     -0.08825748362864
  C   5.70056535728533     -0.00752895609061     -0.11431489977807
  C   7.11318718287930      0.05404214810304     -0.11171264101929
  N   8.26415730785994      0.13024547299536     -0.10593869984668
  C   4.98352100013368      1.23998006357311     -0.12973285982791
  N   3.57924539937160      1.16554948074989     -0.07199768220406
  N   5.59880080197806      2.38175924228047     -0.17389940540547
  C   4.82074459400404      3.57884174575681     -0.04828033096817
  C   4.02679415099116      3.93259428509842     -1.25063005850574
  N   3.39126373688323      4.17891536052648     -2.17448844455472
  H   2.46348450376425     -2.89899582398224     -0.84928118194326
  H   2.52259650190767     -2.84255186551363      0.92352663253111
  H   6.53163385551557     -4.09547970436856     -0.04080952680017
  H   3.07452416135032      1.94245088386527     -0.47313958791336
  H   5.49315363132714      4.41898356726270      0.13329731306415
  H   4.10545325950163      3.54895554494597      0.78869603476389
