22
Coordinates from ORCA-job 10149optt
  Br  1.03239609642347     -0.37647264494478      0.14201369276559
  C   2.89605532652762     -0.16091779161401     -0.04834631909556
  C   3.77531442832244     -1.14095239239369      0.15989855222482
  C   3.65174522245422     -2.58263451833453      0.54934971387296
  O   4.99438603809289     -3.07145621060835      0.56725748754245
  C   5.89129504815283     -2.06067826247467      0.22833150599294
  N   7.15732506426828     -2.26212661107847      0.16230870081232
  C   5.15689529942033     -0.86820311723963     -0.01197142040214
  C   5.53558833804141      0.42261148305612     -0.36028176727696
  O   6.88844858447316      0.71586575715347     -0.52994296926830
  C   7.66518456768281      0.47103637278441      0.53031701994936
  O   7.33545701781372      0.48962133341863      1.68052854065712
  C   9.10342484883817      0.15800480303676      0.14515313539856
  O   9.61875836127375      0.46519622169414     -0.88846272084690
  C   4.59370395734919      1.46555305406361     -0.55024303506484
  N   4.77415086979021      2.69843940616792     -0.83772465704226
  O   3.24089473345795      1.09989201428729     -0.42172823037033
  H   3.07086246620519     -3.16463226945385     -0.17059361381723
  H   3.21185102771427     -2.71305196989649      1.54130413180595
  H   7.37078094706663     -3.22582163118389      0.40528616353547
  H   9.63986011257506     -0.35402107880073      0.96237051387096
  H   5.77362164405630      2.86374805236072     -0.91982442524400
