22
Coordinates from ORCA-job 10156optt
  Br  1.06164410216355      0.03569266212493      0.30731298791336
  C   2.94559391176593     -0.08308454102635      0.18012884661920
  C   3.63774509756541     -1.23937268561969      0.15833915236669
  C   3.23227170534173     -2.67703841425749      0.17389380656187
  O   4.47128278790793     -3.39084526483885      0.15767142594813
  C   5.55486460625449     -2.50810816357808      0.10741605179637
  N   6.75117639840251     -2.93931167092958      0.06890087567167
  C   5.04461349897625     -1.15771172075242      0.10565381578478
  N   5.76739791062419     -0.01817134937641      0.04594666487480
  C   5.09154153579214      1.14089909585903      0.05465234904030
  O   5.56522883619091      2.26769198446262     -0.04347298302081
  N   3.65527686304781      1.09698280054132      0.20130446142455
  C   2.42427691633750     -3.09870405538866      1.36513201951712
  N   2.54926798006173     -2.55092198373828      2.55464264624380
  N   1.68038821003265     -3.25292253536286      3.29423036101268
  C   1.06390555158471     -4.17574918914442      2.53950645411704
  N   1.50869984631136     -4.10905550323303      1.30966426645436
  H   2.66224542020464     -2.96130170252992     -0.71568691578428
  H   6.73915059412354     -3.95761372445697      0.08758308012802
  H   3.19496492592415      1.97620908608108      0.03605875799040
  H   1.55515380034338     -3.03385679574193      4.26724736095263
  H   0.31830950104341     -4.85370632909402      2.92287451438729
