21
Coordinates from ORCA-job 10157optt
  Br  1.40497344850109     -0.47855140231987     -0.92315921447367
  C   3.22032129234087     -0.09628654367697     -0.45134247991948
  C   3.63977871527534      1.13849495052798     -0.13740686661830
  C   2.80522946577080      2.38021351251578     -0.09276668238894
  O   3.61007653674084      3.51690747421561     -0.41387602162320
  C   4.84163393458652      3.53153355320914      0.19715972855037
  N   5.51497887332328      2.48996036343247      0.53796445788826
  C   4.99683504123066      1.25696736528360      0.31369611185655
  N   5.75751078205689      0.16163340690277      0.56307116096681
  C   5.33910863990388     -1.04513259011910      0.26774048942021
  O   5.84135500096489     -2.12822885645817      0.41233085616914
  O   3.98229218974594     -1.16914511704391     -0.40536931012106
  C   2.18433188136828      2.59187836347081      1.26912954426684
  C   2.53903276401799      2.04169016268409      2.46802985943653
  C   1.74193930107621      2.57460676691168      3.51001294110563
  N   0.84190733139082      3.46656015373439      3.16846451625360
  S   0.92492650833120      3.70840251466603      1.54619692541725
  H   2.02246967124604      2.35304191929125     -0.85032128546261
  H   5.22736901648269      4.53399834087772      0.31677011752405
  H   3.32127235901501      1.30486781052928      2.58395048317843
  H   1.82365724663068      2.29658785136540      4.55372466857358
