23
Coordinates from ORCA-job 10152optt
  Br  1.11005805781186     -0.25873382038969     -0.33516499707577
  C   3.03638542719462     -0.04902288993132     -0.08889281077948
  C   3.54727484295829      1.24385784298641     -0.14320994567671
  C   2.79134869441346      2.52048428333762     -0.24485993549980
  O   3.62140322064444      3.57544228902398     -0.76803884572735
  C   4.92639164644854      3.52283896356031     -0.43868384709604
  N   5.60455447794154      2.54501329216842     -0.00908278880643
  C   4.95432929839659      1.29542160596603      0.07444280352503
  N   5.68807000414315      0.24645750974380      0.29953842713497
  C   5.05895919709028     -0.96175356684548      0.32079275150693
  N   3.69976525459818     -1.12471660429945      0.11952125678262
  C   5.81649425397817     -2.15593433289061      0.54769110273731
  O   5.39110238947873     -3.30712540997764      0.55977884481529
  O   7.15826582322349     -1.93586045663829      0.76322424595364
  C   7.89343151232759     -3.13504081989082      0.77653096865655
  C   7.41656390849839     -4.12313965513084      1.83558104599116
  O   7.46726698816985     -3.89110894278772      3.01275458720413
  H   2.42568195688166      2.87285383199982      0.72936537651221
  H   1.93763679525301      2.44039233529709     -0.91489984414153
  H   5.40106364970095      4.48539247685151     -0.61076567494214
  H   8.92180591353730     -2.85438319557050      1.00939698268096
  H   7.84921942967926     -3.62201471070217     -0.20250920578667
  H   7.07092725763045     -5.10232002588045      1.46048950203111
