23
Coordinates from ORCA-job 10155optt
  Br  1.07258638243794      0.22309546431243      0.10284143079747
  C   2.88800854878631     -0.09058156217808      0.65223681712143
  C   3.56268929386012     -1.26871424593300      0.27360219272518
  C   3.18739579533972     -2.60004438844333      0.01053354270986
  O   2.09171953580316     -3.17727712777861     -0.02614734387276
  C   4.50204230332111     -3.35715970104745     -0.30169575520964
  N   5.54037440040475     -2.35904038615315     -0.16432492701051
  C   4.96849128915776     -1.13316504445339      0.07145687005629
  N   5.65322744625054     -0.02779632759868      0.09037670332277
  C   4.95715518824330      1.12256349866112      0.38083958516346
  N   5.45247507696216      2.29178959655314      0.42629014449812
  O   3.60504367730776      1.06845105507108      0.68568797297466
  C   4.46181677776892     -3.98559787496325     -1.65904540994114
  N   5.47666740874295     -4.18231636590671     -2.46818953230084
  C   4.94285599371375     -4.81637207698590     -3.56295509557580
  C   3.59936417320849     -5.00243949397789     -3.39860832404267
  N   3.30911360432142     -4.46910691406382     -2.17122152497477
  H   4.61981085811297     -4.14861873360018      0.44794414617090
  H   6.34668733803119     -2.40575591092127     -0.77007904072492
  H   6.43968068753131      2.19940700072727      0.20431379627474
  H   5.55182330132866     -5.09747992018303     -4.40657418831420
  H   2.84874226745588     -5.44416240691803     -4.02970356286395
  H   2.42322865190973     -4.33767813421920     -1.69057849698363
