27
Coordinates from ORCA-job 10161optt
  Br  1.48025846642521      0.09187371098343     -0.18030610739247
  C   3.39672228497776     -0.13924155916594     -0.37051997197728
  C   4.17139574005810      0.93683638394860     -0.08883673447471
  C   5.63791942985573      0.77589648996752     -0.18123343838430
  O   6.53924947370098      1.90294807137793     -0.43043715767908
  C   6.54075470635347      3.23818716054416     -0.09965899283254
  N   7.46388345494537      3.99310524946738     -0.52776413433608
  C   5.52228840392328      3.77364992121732      0.94833571781626
  C   4.25458285188585      4.65569469407038      0.58893695567194
  C   3.04898323824183      3.62147600223100      0.48141688000546
  C   3.95964546718402      2.40611385286353      0.16036248802403
  N   4.81679848141641      2.61366502860143      1.37018433223063
  C   4.34157561566924      2.85896730429311     -1.24603270313339
  C   4.39960245816404      3.17505178318776     -2.40251255895000
  C   6.06355759808291     -0.45586756631682     -0.73439935011013
  C   5.14650594181865     -1.44926447964553     -0.95341325571773
  N   3.79335526983941     -1.34787804840341     -0.75088294231930
  H   8.07434867084263      3.46752006515392     -1.15237398054428
  H   6.11124383933732      4.25989331467390      1.72701141251723
  H   4.38087291118763      5.21732172832918     -0.33331076548317
  H   4.09038473620971      5.35399554416127      1.40896662080637
  H   2.35464875477453      3.88350081981640     -0.31257249099423
  H   2.53429787654824      3.50016326344019      1.43016801546132
  H   5.42136074170899      1.81541659458441      1.52957000511758
  H   4.48670898650339      3.44520609320651     -3.42627189601604
  H   7.11245016559463     -0.62591052698546     -0.94250424700508
  H   5.48460443475052     -2.41832089560223     -1.30492170030099
