25
Coordinates from ORCA-job 10176optt
  Br  4.53540227175366     -0.57233350086934      2.09724327706105
  C   5.97336647203360      0.70683726121145      1.97830968210966
  C   6.81862123284640      0.92463134733969      3.17194640560893
  C   7.87749248653376      0.14759898789991      3.03383439974870
  O   8.78512232044570     -0.55717400568660      2.85580934661485
  C   7.35169674559729      3.12099622110963      1.82302564248000
  N   6.48693171354868      3.89264543679714      2.33015052301371
  C   7.18451480168837      2.29609925191314      0.60134559141441
  C   6.27671988274648      1.22375022160323      0.72166885691209
  C   8.10716455400271      2.66920338103208     -0.38011255443318
  C   9.16599346921339      3.58016070687627     -0.03270472611851
  C   9.51548498591977      3.85462900369754      1.25970343247996
  C   8.77196598705303      3.05119728210560      2.31013781609740
  C   8.87468064338110      3.23249719736097      3.79506230343462
  C   8.01812764868911      2.66915136302927      4.65521356572680
  C   6.75300973152079      1.92231931047994      4.29172198070182
  O   5.73972651680807      2.12938016281728      4.91484800298859
  H   8.07080353101799      2.24195700221778     -1.37566629480319
  H   9.73985615912437      4.02978646951424     -0.83675808501663
  H   9.68747479172820      3.83273918099033      4.19479685044308
  H   8.12041105085826      2.85909959186087      5.71821128048657
  H   5.88703753335557      0.72597350968072     -0.16213012311195
  H   10.31707789276210      4.53430135842014      1.51884176827746
  H   9.10009478489019      2.02013042490693      2.11315759806630
  H   5.61222279248120      3.80142283369175      1.81034345981741
