27
Coordinates from ORCA-job 10179optt
  Br  1.14433300642998      0.22395868160817     -0.03565466120174
  C   3.05304460466113      0.07237275947891      0.12845824298236
  C   3.65248645082143     -1.19648647357677      0.05011664232260
  C   2.96768989854355     -2.50005238862859     -0.16958979529424
  O   3.50675089711666     -3.54437793001826      0.67148471839049
  C   4.84875208910795     -3.64178277919095      0.77531436652128
  N   5.39749172518932     -4.56757239163314      1.44191023134375
  C   5.65530233895855     -2.60337681063932      0.04251193605072
  C   5.04614654913040     -1.22956710082895      0.16274939223148
  C   5.80773099118608     -0.09796910032631      0.35486614940453
  C   5.19076646015228      1.19515626989499      0.41694527790714
  C   3.77054601410941      1.22259341903520      0.30033405305609
  N   5.83101796715813      2.36748410959255      0.56870096586163
  C   7.13826679396630      2.44794307661090      0.66169177648074
  N   7.69104720080550      3.73027865785464      0.80714308814805
  C   8.98501456546542      4.05619140182006      0.93784185945468
  O   9.42286188350852      5.19528501998923      1.05343584221389
  H   3.06097113801484     -2.85247666045524     -1.20643234180084
  H   1.91004684891274     -2.45310655868463      0.07492075149260
  H   4.67639191536847     -5.16705389619522      1.84356821968062
  H   5.66526362043252     -2.89625990932183     -1.01582978393308
  H   6.67809879594673     -2.64263299490477      0.40712990278158
  H   6.87950111131873     -0.20292461473214      0.46219675032924
  H   3.27804072957326      2.18385162185992      0.35219501607166
  H   7.85788623895655      1.63713306922991      0.62795126906869
  H   7.02031938635155      4.48817109481252      0.81286387103544
  H   9.64523077881392      3.17322042734911      0.93017625940065
