26
Coordinates from ORCA-job 10178optt
  Br  1.07603956050113     -0.17701735700317     -0.37446882251995
  C   2.94441490641333     -0.01880483301840     -0.11974395541657
  C   3.59933352135384      1.23802008473867      0.01187027836424
  C   2.95251747615584      2.51443856051371      0.10158939092387
  O   1.73693075843130      2.72039918795704      0.24216634910781
  C   3.82516126398011      3.77149213395415      0.06014733901241
  N   5.16279245631037      3.55731885085460     -0.47925767377038
  C   5.82020682255391      2.49860497379097      0.26870288040296
  C   5.05254994567967      1.22151471009363      0.09656301050152
  C   5.67484855715818      0.03384042769210      0.07844008531520
  N   7.03794963927280     -0.28334107596872      0.15798156982726
  C   7.27088068993983     -1.63544974958473      0.10758162608492
  N   8.36891179320710     -2.27542908337444      0.17125433822087
  C   5.91287943233231     -2.29135069389975     -0.05083201623202
  N   5.01364366280648     -1.16411473520505     -0.01540130172987
  C   3.62003745355422     -1.27304525396336     -0.15442125309900
  O   3.15547552703542     -2.40709392739235     -0.28542972308846
  H   3.85335351132217      4.17669337756532      1.08667737832879
  H   3.29107307388121      4.49127376723558     -0.56061326029907
  H   5.70012289664566      4.41298567525175     -0.40585159380576
  H   5.88952016852794      2.74965752179069      1.34396750960766
  H   6.84031416009629      2.38499561619961     -0.11002624102093
  H   7.75975387902615      0.40223209265414      0.28814522618520
  H   9.16175171500351     -1.64416326352484      0.27326046330384
  H   5.71792945345059     -3.00160457743737      0.75482251272332
  H   5.85060767536053     -2.83805242991981     -0.99512411692786
