20
Coordinates from ORCA-job 10177optt
  Br  0.84795116452732      0.11878842476072      0.04850969637339
  C   2.73728444960153      0.02821287699353      0.05228248620313
  C   3.48555653265740     -1.13581841177099      0.05315710013940
  C   2.87652611016336     -2.48924793003090      0.05334210973050
  O   1.64908994573617     -2.69907323127534      0.05363639115445
  C   3.81202292670430     -3.58132599336677      0.05327603346119
  N   5.12766944600376     -3.51302727726921      0.05363161792401
  C   5.67123927755536     -2.28435134756561      0.05412045154513
  C   4.93047547339346     -1.12181280710829      0.05403094614561
  C   5.58056070766281      0.16017103999496      0.05481634032178
  C   5.02319761919170      1.39851828176298      0.05499789055311
  S   3.31137876286407      1.69685867763902      0.05352975493040
  C   6.11313633361026      2.32962755672855      0.05631003421762
  C   7.24862902601022      1.57712997083930      0.05668155686834
  O   6.94111878258853      0.27358613009544      0.05580252622583
  C   6.05766133964251      3.74888118469770      0.05716145642147
  N   6.01476892778336      4.89664972698056      0.05854613264768
  H   3.35860399330346     -4.56902948012021      0.05309433616207
  H   6.75341984973894     -2.22660765532124      0.05461114563557
  H   8.29070933126144      1.84287026333583      0.05746199333933
