23
Coordinates from ORCA-job 10171optt
  Br  0.63413970318725     -0.62512875967461      0.05468150731203
  C   2.47443964030054     -0.17094420920720     -0.00003995749051
  C   3.44163735786981     -1.08740281398574      0.07977127458697
  C   3.39894849647603     -2.57434880453583      0.19476761071662
  O   4.75653235894112     -2.97540186999358      0.09663570021805
  C   5.58745320570994     -1.87160238426402      0.00500670791894
  N   6.84543728931319     -2.18011784107377     -0.14397849597170
  C   7.84374120244530     -1.31385406522627      0.04757342236092
  N   7.95753539784729     -0.23742279113459      0.78825113740248
  C   9.27267034783121      0.15344305823557      0.64854841646249
  C   9.91680995491598     -0.70140565022855     -0.16836749527834
  O   9.02226364029299     -1.65059770341154     -0.56236583166518
  C   4.81490877980298     -0.67980387198495     -0.00402619168896
  C   5.13290498489957      0.67810461023055     -0.17678456521661
  C   4.10529913198428      1.65526302088397     -0.25807279481995
  O   4.23043732040694      2.87298763260694     -0.40147882297289
  N   2.77557581066582      1.16037812610653     -0.15686317154652
  H   2.82500146768260     -3.04706009992030     -0.60720407514508
  H   2.99528153706977     -2.91302233849825      1.15418157218110
  H   9.66372502221971      1.02601144272537      1.14611195588526
  H   10.91939472626908     -0.77982632877942     -0.54741132402821
  H   6.14994082306146      1.02869639345936     -0.21063197608610
  H   2.05292180080672      1.86005524767035     -0.18230460313481
