28
Coordinates from ORCA-job 10175optt
  Br  1.10520600115870     -0.00702721903436      0.47726254763366
  C   3.07215532034402     -0.01559887459084      0.30657022520368
  C   3.70811704609672     -1.26928675550899      0.36317188903086
  C   2.98487179091655     -2.53511494613328      0.57809135658564
  O   2.62158236427476     -2.75197716709233      1.99538465010129
  C   1.37665387719772     -3.14454433486064      2.26063032061298
  N   0.95293583388036     -3.51057722273634      3.39369680842703
  C   3.70598395163585     -3.83743841877350      0.15372330658644
  O   4.27020128806003     -3.69831021516670     -1.12967521731026
  C   5.63559693014832     -3.30243315824816     -1.09434905728200
  C   5.94613947976913     -2.45878707854551      0.14674824597988
  C   5.66465973804229     -3.35609258499473      1.36613874427588
  O   4.64632384495172     -4.30795761983564      1.07114655666943
  C   5.15089070662473     -1.19090354092157      0.18037497561604
  C   5.72942825909852      0.05017418127375      0.03619968217875
  C   4.96477509580038      1.21329510687616      0.04049110708947
  N   3.57910833156499      1.15068610405556      0.15677729280130
  H   2.04099272466293     -2.51809434499038      0.02717364393763
  H   0.69743465232930     -3.12093504845030      1.40655012857492
  H   1.71685377545153     -3.47304045270982      4.06954350914964
  H   2.95617738911847     -4.62740423618503      0.07983189009054
  H   5.81837571863866     -2.72649362944710     -2.00113270089193
  H   6.26918455707305     -4.20001945585087     -1.10447363764634
  H   7.00931590351728     -2.20508190854087      0.12321325849005
  H   5.36263603857908     -2.74987092106254      2.22448537621009
  H   6.54501092542727     -3.94547927148046      1.63019627538004
  H   6.80681771587556      0.12411562119789     -0.08608469574942
  H   5.39657073976200      2.19819739175665     -0.06168648174530
