25
Coordinates from ORCA-job 10170optt
  Br  0.87847827536172     -0.30038235351176     -0.00404429321706
  C   2.87592696043900     -0.10576554313285      0.26442173758599
  C   3.60859517246199     -1.30469817866034      0.17967116738238
  C   3.17989167085542     -2.65880791047075     -0.03211472043995
  O   2.09118379207406     -3.17855737368176     -0.19817264621435
  C   4.44466721638536     -3.52827600504099     -0.01633945703819
  N   5.54637533684047     -2.60748205066487      0.20327106970691
  C   6.79706992313478     -3.03411384007059      0.52173343365407
  N   7.71829135358064     -2.31289015147737      1.04523083209173
  C   8.93834335744176     -3.10356178759899      1.11573770754346
  C   8.52246864875777     -4.57801555877305      0.94338512572480
  C   7.19887306455960     -4.46229255533292      0.18702668383820
  C   5.04676095827169     -1.29458179492523      0.34023841540847
  N   5.87733841555874     -0.25516736255280      0.05468400708047
  C   6.00013558472341      0.93056915863513      0.00488880189196
  O   6.26167421545194      2.07219489213987     -0.08220552645377
  O   3.26213562676290      1.01077796411416      0.47026238011461
  H   4.52958731623719     -4.06242999679709     -0.96658247456948
  H   4.34926509137122     -4.26101161391616      0.78849302685387
  H   9.45270390307628     -2.92385154781095      2.06163772712536
  H   9.62271389665404     -2.79234290221314      0.31681968811225
  H   8.34818532257309     -5.02857914230042      1.92189336568950
  H   9.26762747816786     -5.17915414075528      0.42301603044839
  H   6.45439570565068     -5.19693191193742      0.49135900631202
  H   7.32331171360825     -4.55564829326435     -0.89631108863167
