23
Coordinates from ORCA-job 10189optt
  Br  1.48850503397907      0.00019145326929      0.32602011314150
  C   3.31983054502186      0.06954211442432     -0.33576587950709
  C   4.10908926866459      1.24297381879279     -0.18092946416633
  C   3.51973121096239      2.55732758082407     -0.38102338111486
  O   2.33858792433758      2.74720039018102     -0.72248317178876
  C   4.43417012140201      3.65921353580172     -0.15773701281421
  N   5.70293946122345      3.55885445815669      0.12337928333698
  C   6.25226874067119      2.32685370153843      0.24834320199709
  C   7.64565372745345      2.25867214071441      0.54415236181324
  C   8.82214068806789      2.16515455581715      0.79539513177082
  C   5.49883333136746      1.14796981436343      0.11262289630330
  C   6.10668740380891     -0.14629056909054      0.26248764128828
  C   5.31756783340009     -1.23828930780071      0.10389201072563
  N   5.60526445302715     -2.58406590370432      0.14827906685716
  C   4.46415978602345     -3.31631808301763     -0.16214702002903
  C   3.46259493645261     -2.44096893971152     -0.35624649037242
  N   3.97065301419340     -1.15984600323029     -0.18094878963581
  H   4.01342652539775      4.65591296610584     -0.26520367225294
  H   9.85797450291959      2.10522612578206      1.02140385406565
  H   7.15725207980673     -0.24494178439704      0.48941710255818
  H   6.53839288618650     -2.94222489685592      0.21708021242945
  H   4.46058490360703     -4.39045428495309     -0.18472230595845
  H   2.42269162202569     -2.59869288301013     -0.57226568864739
