24
Coordinates from ORCA-job 10182optt
  Br  0.81529596642169     -0.03244133711103     -0.04478976506561
  C   2.72170923313610      0.03917886672939     -0.00400274491685
  C   3.37489795446943      1.23562636140275      0.05702162283358
  C   2.73947293133047      2.58897381727457      0.13264705621571
  O   3.42259279248340      3.55457668443039     -0.67448254002532
  C   4.77961167295734      3.60949208640671     -0.62933598141257
  N   5.41207733023533      4.49500778951964     -1.27144653826046
  C   5.46525339738855      2.56853938647735      0.21173956529360
  C   4.78565807962557      1.23512810294807      0.09372013924807
  N   5.51108651573865      0.11204814659004      0.07174737513257
  C   4.87977910172210     -1.03694211396674      0.01876642645225
  C   3.45423323150362     -1.19233388515224     -0.02076669539250
  C   2.92047280810893     -2.48133254788211     -0.06622707910218
  N   3.59080353648159     -3.61444740166315     -0.07828243268157
  O   5.00471233297720     -3.46856965475776     -0.03890093448123
  C   5.67660949198880     -2.28441285231332      0.00380411706313
  N   6.94504852379231     -2.29848898259730      0.03192169552562
  H   2.73535720335219      2.94422930280803      1.17017662583328
  H   1.71598654816147      2.58108449202583     -0.23050161636381
  H   4.75181083879005      5.09590012678991     -1.76521172506949
  H   5.44959281805984      2.92945617012471      1.25242573597859
  H   6.50618268695813      2.50364483490858     -0.09216791750389
  H   1.84811032582207     -2.63074373463507     -0.09672399092921
  H   7.25464467849510     -3.27017365835725      0.01386960162830
