20
Coordinates from ORCA-job 10185optt
  Br  0.85006132600919     -0.37662987946358      0.03127986120570
  C   2.70726626679346     -0.13967072831579      0.02975269086810
  C   3.39471423724092      1.09701717654852      0.02917656604378
  C   2.72931658221074      2.41717410658841      0.02866860752994
  O   1.50137299741736      2.55132071977119      0.02855577110978
  C   3.63755997715185      3.54490439161764      0.02821367184735
  N   4.96595500486205      3.49514141043060      0.02812813043887
  C   5.54273938848165      2.30161034401779      0.02844987139181
  C   4.80565024460681      1.12941925377441      0.02890789419396
  O   5.59121818953873     -0.03576488725513      0.02912589269538
  C   4.88167132993645     -1.16466720149831      0.02928301807259
  C   3.52049475897792     -1.31415638691845      0.02961890213501
  N   3.22055127118683     -2.66012829115040      0.02969714963005
  C   4.36710869783416     -3.28028680642573      0.02941392651460
  N   5.42971856329206     -2.40743037764120      0.02912648856837
  C   3.05071806305536      4.85729617206133      0.02768038363354
  N   2.60687421848841      5.91849474910205      0.02724300361130
  H   6.62498113336518      2.24930717784501      0.02836143129094
  H   4.51274624554644     -4.34799583989119      0.02936592165962
  H   6.41028150400439     -2.62695510319718      0.02895081755931
