17
Coordinates from ORCA-job 10184optt
  Br  1.00727652340939      0.29810345954012      0.33518841379395
  C   2.87316716776968      0.05436567194636      0.24590424935713
  C   3.52812629373258     -1.12396887095397      0.09115236449775
  C   2.83673626408117     -2.45391995696596     -0.01058361719721
  O   1.62743039422272     -2.52968950857100     -0.19000260610131
  C   3.71334350873504     -3.60293595106280      0.11781806136567
  N   5.05933469579221     -3.53761906402039      0.08556836032495
  C   5.64656316766102     -2.36774420910237     -0.00748145401605
  C   4.96799173563058     -1.14448767085026      0.00913502075481
  N   5.74891023505928     -0.02302686508609     -0.17285601719275
  N   5.37781031413986      1.15121524534534     -0.08706339731064
  S   3.72394569170548      1.55784432435148      0.40352132526563
  C   3.15644630138171     -4.93876501939125      0.25140093865926
  O   3.79078468231618     -5.97631912147446      0.24430960987861
  C   1.69145735608914     -5.09255382221258      0.48290871184972
  N   0.61116163153983     -5.39853381704514      0.71849328356049
  H   6.72851403673409     -2.34296482444700     -0.08741324749001
