25
Coordinates from ORCA-job 10187optt
  Br  0.92706921364837      0.62126899389545     -0.19191129826445
  C   2.78454515309343      0.17197959505730      0.20183492215646
  C   3.41445578921246     -0.90359654216476     -0.42938384216151
  C   2.58783454305327     -2.02595051573508     -0.96482332968116
  O   2.19475222234964     -3.09178584512515     -0.05911301467686
  C   3.00340335133499     -3.78085813114674      0.77748395731435
  N   2.63121560608800     -4.91603274686635      1.20426979814274
  C   4.30357091695606     -3.19917048002093      1.28210366382485
  C   5.47176561676493     -3.24893235857095      0.30228806683935
  N   5.26889076040781     -3.49944669368294     -1.11477205950591
  C   5.64566790755121     -2.14947791075571     -0.69384912988177
  C   4.82046932035756     -0.90415893689685     -0.54642686035096
  N   5.62614806425564      0.15119205927758     -0.39336467700866
  C   5.21762368276934      1.35157047310178      0.05717664448849
  N   5.85362740110585      2.46278779042093      0.00365166471014
  S   3.65524548355583      1.44405425575202      0.97705971048642
  H   3.05059326067678     -2.47171228153238     -1.84402782958202
  H   1.62364886695550     -1.64144626913169     -1.28450360531302
  H   1.73857149638751     -5.15807715049071      0.77318411549120
  H   4.55710147085842     -3.80728433375944      2.14685035686027
  H   4.13388461655548     -2.17398658878902      1.61668343227607
  H   6.36345551316800     -3.71827959848025      0.70196760866306
  H   4.29007273960019     -3.61928066752181     -1.32745806207072
  H   6.65801428458514     -1.89811101278912     -0.97981770483176
  H   6.74337271870852      2.27973489595484     -0.46310252792461
