27
Coordinates from ORCA-job 10196optt
  Br  1.85050429253099      1.53820765437381      3.05445465110460
  C   2.74526700546096      1.17297595806108      1.36153967318019
  C   3.53323098138517      2.04771131483704      0.74288579313138
  C   3.63583446253828      3.50135677006841      1.04532732048469
  O   2.67104947134812      4.20047734984105      0.21897712468698
  C   1.39207607706761      4.15063309510596      0.67047092236664
  N   0.42908135393184      3.54592314520206      0.13733523980561
  C   0.67002761183654      2.62666435135996     -0.96969965460130
  C   0.14322613831042      1.22691666246630     -0.56165892538504
  C   0.94542379769687      0.02824633827381     -1.09939702476472
  C   2.36801988362390      0.02503900559460     -0.61412253570655
  O   2.41567482614538     -0.01033795884546      0.86025475943425
  N   3.31240574719340      0.71508966595795     -1.24565201953329
  C   4.09296077928657      1.58016541197475     -0.56878937095989
  N   5.20669858081736      2.12584933923246     -0.96581376439184
  C   -1.32014416335317      1.16060764631174     -0.89552107915153
  O   -1.88187635642826      0.24624861427527     -1.44189016717191
  H   4.60505298120440      3.87688368475233      0.73011463778337
  H   3.44694230513932      3.72946263117667      2.09715280333369
  H   1.21674740710198      4.73369771370989      1.57771307623249
  H   1.71945632639989      2.55746634822204     -1.25190407461737
  H   0.11377113872904      2.99090571648219     -1.83949223042864
  H   0.18326492893517      1.19678098624048      0.53496366510438
  H   0.97083998952582      0.04940172525133     -2.19025401856895
  H   0.41711432604455     -0.87871340725977     -0.79863886297455
  H   5.43461056986735      1.73347401775303     -1.87843756814065
  H   -1.88926046233952      2.06886621958100     -0.60691837025202
