20
Coordinates from ORCA-job 10190optt
  Br  1.31571545717822     -0.73445761074887      0.01351638797762
  C   3.12163916831136     -0.22290646444761      0.01139117353993
  C   3.60052530955696      1.06350816070750      0.00866733813629
  C   5.05570874734799      1.09606194012555      0.00653482347388
  O   5.68460012474709      2.27319820189063      0.00316150109998
  C   5.06712484014037      3.53253084726686      0.00116870134715
  N   5.83576814702956      4.54933334460184     -0.00291231951969
  C   3.64282741829203      3.53921295525635      0.00391084457253
  C   2.99320596139134      4.79174150833326      0.00287889503945
  C   2.41840058365685      5.84990078913663      0.00123217109199
  C   2.91034935443116      2.32158718231812      0.00745866110422
  C   1.49867034162172      2.41026046265218      0.01058801801320
  N   0.35084672165698      2.53608706515822      0.01238593491785
  N   5.86013059086302      0.08380742608610      0.00758647821961
  C   5.36054902287988     -1.19289255781190      0.01083297717880
  O   6.03932086452886     -2.20312621931310      0.01197806782951
  N   3.97777727692402     -1.29452155602238      0.01263104880503
  H   6.80444842177039      4.23962628973131     -0.00414622718654
  H   1.91236583868905      6.78336985190553      0.00035456085958
  H   3.60202580898308     -2.22932161682623      0.01478096349962
