26
Coordinates from ORCA-job 10197optt
  Br  1.81925439249619     -0.24287858996118     -1.90960107892906
  C   0.78977875434791      0.73072810547012     -0.63229785407163
  C   1.32771213550074      1.89714659055015     -0.03461733729998
  C   2.08421866366814      2.90128733530785     -0.81791126138370
  O   1.11682967911567      3.76747618362675     -1.55370032754579
  C   0.56641840219539      4.75774820205312     -0.82654772226418
  N   -0.65299174444127      4.91193717145548     -0.54478612446159
  C   -1.59600587559885      3.86901113314671     -0.90495889407787
  C   -2.54163748665148      3.53296282034781      0.26998065088161
  C   -1.82751039900194      3.04163994519183      1.56737988403136
  C   -0.76134653520868      2.08731210653768      1.15455932055372
  O   -1.25936333136588      0.96233072163853      0.56289844034017
  C   -0.44241983007270      0.15018881370638     -0.27832392878741
  O   -0.94139453562623     -0.90463180475000     -0.61586212552079
  C   0.51191311362501      2.48396525087151      0.97642561761436
  C   -3.42707814340340      4.65590381096364      0.58556159236042
  N   -4.13614670276911      5.51784275762423      0.85210005270677
  H   2.69669583770802      2.46590808712434     -1.60178234559943
  H   2.68730431464114      3.56080255052565     -0.18608889287659
  H   1.28215841011969      5.49806895727458     -0.45653315671904
  H   -1.10336864227356      2.94558731759005     -1.22093116859093
  H   -2.21146015008206      4.22451625828849     -1.73514973031331
  H   -3.17820420757311      2.71465565518854     -0.07595861053822
  H   -2.58045186464588      2.60447080477746      2.22745023573735
  H   -1.37300319075918      3.89393466372114      2.07104930434805
  H   0.81209893605541      3.42208515172910      1.42664546040573
