28
Coordinates from ORCA-job 10193optt
  Br  0.30084858909641      0.23908376301203      0.84196769996731
  C   2.84554992209911      0.55840840581062      0.38729083714285
  C   3.75358684370121      1.58224886249224      0.29235938614624
  C   3.64004066900629      2.97847473758754      0.47200958105795
  O   2.47596697618868      3.60744557794480      0.86771109092987
  C   1.44745252233366      3.65478815552498     -0.02843236498850
  N   1.50930333192626      3.44947403482470     -1.26843459263274
  C   0.18009693664599      4.02582322688077      0.68410710609453
  C   -1.05260101728934      3.80445375911845     -0.18747552835908
  C   -2.25912781887331      4.34432457207645      0.43209425306820
  C   -3.23343253431974      4.80633426329586      0.95819982453097
  C   4.87027760045753      3.55695290789712      0.23842702295344
  C   5.80970674911131      2.53609642085344     -0.08632154390186
  C   5.14452099355997      1.31769023057577     -0.06196546356767
  C   5.50751241717909     -0.03594932409735     -0.29330442637009
  C   4.56604137607812     -1.00718782795360     -0.18079621447422
  N   3.26532724438529     -0.68567151316831      0.15573529547839
  H   2.45532108979265      3.18849554674818     -1.54691680382794
  H   0.25198820110433      5.06907989100595      1.00338341963646
  H   0.11964261236236      3.41093708421705      1.58302080282365
  H   -1.16384810702281      2.73029199141207     -0.35566376122313
  H   -0.90039317485069      4.26674446532330     -1.16359504881220
  H   -4.10044152956076      5.20492719875894      1.42520554417429
  H   5.07899095335487      4.61532708330326      0.30516550020015
  H   6.85492249048700      2.69167595447100     -0.31086176432147
  H   6.52023884413087     -0.31146131276341     -0.55957480765778
  H   4.76507222619544     -2.05632168207585     -0.34398313809741
  H   2.56143559272003     -1.40948647307626      0.22364809402979
