25
Coordinates from ORCA-job 10209optt
  Br  1.94899141394715      1.63987970646319     -3.44003685993827
  C   2.82086771449965      1.31087068726965     -1.75942595320433
  C   3.51916035670373      2.22435298661891     -1.08137811043803
  C   3.37473816325496      3.69536332763815     -1.26751522368759
  O   2.30547798665630      4.12546004621726     -0.38098846173325
  C   1.07833598852734      3.70368817178615     -0.78195021144451
  N   0.30997676951766      2.92395165402877     -0.16734140597910
  C   0.74436379409343      2.29858990180066      1.07870410272146
  C   0.30199554135098      0.83862638422551      1.09255428782353
  N   -0.81987954365968      0.44758355876915      1.56301013258160
  N   1.13562341829867     -0.11201574741308      0.53896241851028
  C   2.45878666782318      0.02397555550540      0.10881728030362
  O   2.60958960390588      0.06224652618616     -1.32126559117504
  C   3.44172799241898      0.73133703370525      0.78946568835223
  Br  3.67379401134241      0.38798085050427      2.66166428519522
  C   4.16473689041169      1.78882866821645      0.19648024435406
  N   5.18802824932539      2.48426325723402      0.62275932987958
  H   3.12970530932245      3.97555798162061     -2.29431638242693
  H   4.26206829213567      4.21398128372071     -0.91817287466617
  H   0.75842277251691      4.10869921097668     -1.74457546863590
  H   0.21497248063481      2.78823885067438      1.89871777893179
  H   1.81354330291759      2.40526000011486      1.25332383379902
  H   -1.34790832134151      1.24520228314239      1.90296001304020
  H   0.70423807040284     -1.02504197401941      0.51176056837059
  H   5.49564307499347      2.11211979501392      1.51978657946594
