22
Coordinates from ORCA-job 10204optt
  Br  1.17867832237696      0.14306030231221     -0.02412889907615
  C   3.06183865740406      0.03099665939754      0.07890263062260
  C   3.72677834638481     -1.19195070873902      0.02141569656962
  C   3.05382060436384     -2.51778843351566     -0.15243694536145
  O   3.69019961029064     -3.56176439475518      0.61040623962177
  C   5.03046518360608     -3.59603302982641      0.71151307072335
  N   5.64195556782974     -4.44739816181068      1.41091725341135
  C   5.79893044256120     -2.54274248598845     -0.06844164446782
  C   5.86878882557749     -2.96253002318141     -1.48094491904250
  N   5.87911823053437     -3.29701958608831     -2.57791628023103
  C   5.11351201791057     -1.21000072777765      0.06992229416208
  C   5.82206270393454     -0.02670103199740      0.20172681905564
  O   5.15609170889971      1.18342723262126      0.28170871380579
  C   3.77272176324459      1.26884102792607      0.21561725218361
  N   3.23985834727288      2.42426632627527      0.28972428418208
  C   7.21715275855281      0.06310097543399      0.27636969382049
  N   8.37459455123915      0.10404730048895      0.33815407864222
  H   3.05108256837196     -2.82383287594986     -1.20467004754743
  H   2.02787920671086     -2.49278844607751      0.20211758933815
  H   4.97102086347813     -5.06257720607624      1.87096195840777
  H   6.81391749620552     -2.51891840065935      0.32739987653120
  H   3.97253222325004      3.12230568798784      0.39068128464864
