22
Coordinates from ORCA-job 10207optt
  Br  1.14717426135802      0.01107144759346     -0.14288165728005
  C   3.02920950523813     -0.07202858640897      0.00907008998870
  C   3.67643110667326     -1.24585392223682      0.05467118002861
  C   3.03467932500912     -2.59839844403781     -0.04947125113262
  O   3.70374417434722     -3.57255855580670      0.75260247538307
  C   5.04546413608753     -3.66816337810971      0.61964949025658
  N   5.72030417448984     -4.60866480124605      1.10549095363148
  C   5.70614425030395     -2.53253079681037     -0.13858268968069
  C   5.66443085322284     -2.81880584170996     -1.58988160289597
  N   5.59056833925570     -3.04642326627835     -2.71122116310058
  N   5.04711964090693     -1.27503708537099      0.17939334099923
  C   5.75947497306392     -0.05295264633414      0.22805369645635
  C   7.16795084872911     -0.04811191054293      0.43290134803870
  O   7.90593005254013     -1.03685874133537      0.65821288310319
  N   5.12199826625140      1.11501640454716      0.14013231944845
  C   3.77792035330676      1.21889628315190      0.03017708597030
  O   3.17589810702846      2.28184756339909     -0.04527597123923
  H   3.02618702719946     -2.93049935845654     -1.09281446230660
  H   2.01371888535261     -2.55924125939628      0.31328656608923
  H   5.10620982414585     -5.27821519937478      1.56892410749213
  H   6.75137760401770     -2.45235851410737      0.17690210319166
  H   7.57906429147193      0.96887060887155      0.39166115755805
