24
Coordinates from ORCA-job 10215optt
  Br  1.74148171801491     -0.88554351692586     -0.43519102217968
  C   0.62476923236478      0.49714470159248      0.25474405015609
  C   1.14703064396497      1.79492962384417      0.36113544485893
  C   1.84374549332742      2.48136386058903     -0.74456817642450
  O   0.91375749550152      2.85087055013880     -1.86380505456642
  C   -0.05599796160784      3.67680694297727     -1.49067598720833
  N   -1.27173557523552      3.47754287896561     -1.76706106398605
  C   -2.22171363532435      4.37942724175119     -1.16822576584816
  C   -2.80385676603315      3.71131189980521      0.09447733003500
  O   -1.79685001843945      3.57673529991304      1.08103632140456
  C   -1.05719402694297      2.41177137824355      0.98323503865048
  N   0.27957949923940      2.65412178214250      1.12514438987897
  N   -1.58731341423492      1.29417396276032      0.75556269250922
  C   -0.70893800395001      0.15061609982834      0.60680277641888
  O   -1.18349217536225     -0.97481699872083      0.71919088372219
  C   -3.86802128632801      4.56222735860931      0.65152384738998
  N   -4.68978669081335      5.26469823656237      1.03102996088090
  H   2.57197518323026      1.83648979289191     -1.22574288735315
  H   2.31621861511504      3.41771430799481     -0.42555544687830
  H   0.27803482758567      4.54576736137481     -0.89915173982254
  H   -3.04148048837184      4.57839290100573     -1.86160052338122
  H   -1.78767929690742      5.34093300324465     -0.85909097429050
  H   -3.21067052440205      2.72665586111258     -0.14797068746514
  H   0.53613715560918      3.62366547029894      1.21775659349881
