26
Coordinates from ORCA-job 10212optt
  Br  1.49200243188306     -0.63583733065620      0.37606566707235
  C   3.31592120521862     -0.46872396560151     -0.17513515788128
  C   3.90894163620072      0.83700693748298     -0.32865580339280
  C   5.34059656390442      0.78816075206281     -0.46231886507456
  O   6.07567881652492      1.95978717288441     -0.68946960531500
  C   6.32124364979166      2.84189107262820      0.30641592152970
  N   7.14260005041134      3.79047920787811      0.15249190098943
  C   5.51736611010748      2.69441285846406      1.56402404230739
  C   4.12023673419029      3.27833987913300      1.29847730176898
  O   3.73229756449194      3.23492974459385     -0.05198134812887
  C   3.14251130934998      2.03196036523875     -0.49808438392240
  N   1.97960525839603      2.10591206507576     -1.04588710320791
  C   4.04022600991401      4.74252502445250      1.69426245660367
  O   4.55815520051454      5.21363820862669      2.66770951927302
  C   6.05879777376660     -0.37281806753587     -0.50931076292390
  C   5.42198964525952     -1.62463896599629     -0.41557152796470
  C   4.03645095053687     -1.63631803798484     -0.22013963085820
  H   7.54168521298052      3.74036096373251     -0.78509653942995
  H   5.99829409525521      3.25809965059078      2.36034107099890
  H   5.44004371224146      1.64557677954674      1.84507475653422
  H   3.37928038950651      2.74819216572482      1.91568376238000
  H   1.62081749885870      3.05144465022328     -0.92735830148997
  H   3.41349881525459      5.35086485690215      1.01550776168835
  H   7.12938414682902     -0.29388220471898     -0.65279280648712
  H   5.98419488453827     -2.54541001263726     -0.47422438569846
  H   3.51718033407358     -2.57395377011049     -0.06902793937089
