23
Coordinates from ORCA-job 10211optt
  Br  1.41692735540457     -0.02667108691504     -0.50956996126318
  C   3.28616414372799      0.08813053120021     -0.25572241487583
  C   4.01541762661444      1.29861262189697     -0.14573692496509
  C   3.44052658705454      2.63716880270398     -0.26144936744725
  O   2.24447974798246      2.86447360702911     -0.49340502566433
  C   4.37499720778904      3.74392607017021     -0.08542381756308
  N   5.64356690668287      3.64558947636295      0.14665419919897
  C   6.19552948735239      2.40064659365281      0.23810987354884
  C   7.59700015583305      2.37154887005527      0.49959568984141
  O   8.32321955337170      1.37763813199449      0.62470077730069
  C   5.41284315002879      1.22880879506882      0.09198605573370
  N   6.05364964379836      0.01967642921395      0.19109090586072
  C   5.37451028516482     -1.16613974933112      0.06834115931381
  C   5.79867309391173     -2.46611418485318      0.12611130334302
  N   4.68170287928925     -3.25668882337269     -0.06474545781551
  C   3.56809691160192     -2.47778258572466     -0.23951203603098
  C   3.96221503741194     -1.15538079628455     -0.16217936968723
  H   3.93679147092933      4.73574238042756     -0.16627620423093
  H   8.03162135325816      3.38176997784309      0.59579944337873
  H   7.05359882121819      0.06983017094142      0.37249558779110
  H   6.77560445383413     -2.88783696141447      0.28362547660496
  H   4.68724084382362     -4.25825025646675     -0.07260801837406
  H   2.59262328391664     -2.90069801419838     -0.40088187399852
