25
Coordinates from ORCA-job 10213optt
  Br  1.44589671598209      0.48141954623624     -3.18239150296720
  C   3.52981882201041      0.59306915473607     -2.02658226622953
  C   3.91879586707695      1.76543162894105     -1.47699814993919
  C   3.63953618781384      3.09131822713392     -2.09836956673302
  O   2.23558141182957      3.47033491493320     -1.98332052377419
  C   1.55058545866183      3.15009906465086     -0.89353232911727
  N   2.04639247019019      3.00668510372931      0.25825406739683
  C   1.18932886945124      2.54695570325522      1.31483455234774
  C   1.79537404730576      1.46927752381678      2.22138114825026
  O   1.10391167811719      0.98552117816364      3.08199259486642
  C   3.27048751248193      1.08153338928680      2.11194167505552
  C   3.70742844762738      0.74295251106719      0.71786670332074
  C   4.41984520353720      1.75307792140399     -0.10305968736786
  N   5.30814453066144      2.57047519358070      0.31722714285287
  C   3.37318622807954     -0.37184479352494      0.06371753728433
  Br  2.50844804262467     -1.85049048402259      0.87285305212687
  O   3.56603535681017     -0.54982012858471     -1.25291413214878
  H   3.79902211359850      3.08521512370304     -3.17379494230057
  H   4.24868504009796      3.85875717880801     -1.62160048123855
  H   0.48929951999303      3.01881812182924     -1.12646665487544
  H   0.22187012624952      2.15819141134508      0.97195817606662
  H   0.97660591125241      3.37170541377840      2.00621915598445
  H   3.84179079010422      1.94589347788417      2.46180287529884
  H   3.41973991928796      0.26070732223205      2.81281800090775
  H   5.49418972915492      2.42971629561724      1.30916355493238
