25
Coordinates from ORCA-job 10232optt
  Br  1.89725078201126     -1.84962459837473      0.53976835606395
  C   2.81021127486541     -0.22484179265718      0.17448087905039
  C   2.12994017070592      0.85660610126069     -0.44484550853400
  C   0.65573452662748      0.94681219403854     -0.47996013270228
  O   0.09654678877346      1.40730295696277      0.80557908632281
  C   0.63001196675630      2.55009673273947      1.27840782075851
  N   1.08135188866142      2.59963089845543      2.45272193857540
  C   0.49226447787007      3.76024350365612      0.35661220228694
  N   1.71077846867293      4.51619031034342      0.11357022537535
  C   2.41880717882935      4.36439885302225     -1.06195781528260
  O   2.91590348402474      5.31939558568510     -1.63355938521649
  N   2.46949743904930      3.08002800943549     -1.57138656915130
  C   2.94952977759566      1.96324437316614     -0.78224573842546
  C   4.26750293468919      1.96766745531028     -0.46331144769356
  O   4.88000626911839      0.95712421451430      0.20958041937712
  C   4.18398274014513     -0.23649856809481      0.49921380629644
  O   4.85067777366161     -1.11909525916726      0.99974553650571
  H   0.18729958509230     -0.02497760781404     -0.60458502636416
  H   0.32229965556193      1.61533364494352     -1.27346439089790
  H   1.39220997288387      3.54880874091328      2.65771327681556
  H   -0.21834765229420      4.42915254694482      0.84663262971146
  H   0.04605666483398      3.45869630260326     -0.58888044777799
  H   1.68093420493767      5.48940881294048      0.37122193880581
  H   2.91188595353940      3.11593101686452     -2.47983806481347
  H   4.93966367338738      2.77096557230807     -0.73221358908626
