21
Coordinates from ORCA-job 10239optt
  Br  1.13880730509219      0.11123879664156      0.50403277111934
  C   3.00708484022033      0.04624042342974      0.27844931278691
  C   3.67138555844245     -1.11933431813111      0.05904367649350
  C   3.09297992359045     -2.49148276194751     -0.04889669248819
  O   3.75185753273737     -3.36922533756716      0.82811426684701
  C   4.78348708538466     -4.15158829056152      0.29811938295483
  N   4.86396595959761     -5.36742005203913      0.66104302497294
  C   5.77426047455990     -3.50654099612292     -0.58682293163631
  O   6.56573677117351     -4.19876603708472     -1.25515136601775
  C   5.96965745465376     -2.05915356405662     -0.50823589813516
  N   7.10027258574341     -1.43526816922895     -0.77984372513469
  N   6.93402555023403     -0.07651101996429     -0.57423032135969
  C   5.72042212149084      0.09631413394515     -0.18760009836338
  N   5.05567252246859      1.25988992883041      0.12912457335938
  C   3.69510578986325      1.34110549031478      0.34851461927029
  O   3.16072702048828      2.40768885851673      0.57473183284745
  N   5.02480202400222     -1.08394135913867     -0.11737434918290
  H   3.21042250235739     -2.83012672507600     -1.08749115897776
  H   2.03832030407961     -2.48097182458644      0.21269066643130
  H   4.06483950876340     -5.58238366493198      1.25550183819007
  H   5.57016716505668      2.12723648875867      0.11128057602283
