25
Coordinates from ORCA-job 10248optt
  Br  1.12257699600238      0.11628122848837      0.03001357831647
  C   3.01893413607551      0.07618068812632     -0.02528940692226
  C   3.70409052368616     -1.04597386763695     -0.36677882010557
  C   2.94864514587200     -2.28432413950150     -0.83193479191620
  O   2.27326226549695     -3.04462803342682      0.16933011945581
  C   2.96443195243190     -3.64837903996749      1.20182373061316
  N   2.37120271655670     -4.42092970021066      1.99687412014735
  C   4.38577893474750     -3.15864423792009      1.29916637101267
  O   4.67901701799449     -2.31375849343212      2.17321947348783
  C   5.15587991600870     -3.42868904741690      0.12270304524993
  O   5.02880805891193     -4.44346711589414     -0.60206669552945
  C   5.93054242345119     -2.22516209577099     -0.37933415390324
  N   5.08960671665087     -0.99850935244561     -0.40995138400612
  C   5.79942447494108      0.20884925494352     -0.31460187854225
  N   7.05602268386109      0.35194910562639     -0.54942726315043
  C   5.02876791317220      1.35400169671858      0.12699355711982
  C   3.69706383479391      1.28857324414072      0.28271986894485
  H   3.58592180074123     -2.92507586229060     -1.43640457737161
  H   2.13348775642952     -1.92720450750931     -1.46029843680101
  H   1.39160901589906     -4.50818249623891      1.72066854575205
  H   6.31607983115127     -2.45260543343840     -1.37516664168135
  H   6.76193169127742     -1.98469916578995      0.28566983578186
  H   7.48870631127618     -0.50618335973630     -0.87184160465488
  H   5.59451378824895      2.25201210968847      0.32810703290716
  H   3.12669409432173      2.14556862089441      0.61580637579542
