27
Coordinates from ORCA-job 10245optt
  Br  1.52942437884855     -0.33148874856715     -2.42472421534332
  C   2.93493189430662      0.27865352344635     -1.26226625645300
  C   3.45359597287953      1.50668111316332     -1.32758126650330
  C   2.83398418638937      2.58507884464002     -2.16166102467322
  O   1.50552934080675      2.88759413197682     -1.67648906634754
  C   1.39205768147592      3.18165068043626     -0.35460826825528
  N   2.21825958985712      3.75015134039191      0.39726549298811
  C   0.06519948017475      2.66631990579937      0.17916127701621
  O   0.10423524640285      2.53972393265202      1.58812554074823
  C   0.97683095429325      1.60467056981937      2.04853698326041
  N   1.33103922281604      0.60483592263276      1.38578248181816
  C   2.43532249599467     -0.22566767654561      1.87746208553760
  C   3.58894731530937     -0.06541757323955      0.92628317594239
  O   3.26526774088994     -0.63760492068193     -0.34992467821639
  C   4.35716389129566      1.09807527699029      0.87521156667683
  C   4.47014670760960      1.87183212428227     -0.30277436074221
  N   5.19884404023646      2.95145889585132     -0.53031963820702
  H   2.66987377569345      2.27539286997535     -3.19167658963148
  H   3.47050199428677      3.46952457613999     -2.13692603886747
  H   3.11713449918340      3.95158886028444     -0.04692641435559
  H   -0.14060245822112      1.70933114853116     -0.30118490132270
  H   -0.73861259897848      3.36842239785385     -0.04305458152292
  H   1.31372634533888      1.85643603778284      3.05734752362989
  H   2.75613901992846      0.07164529701007      2.88506955671329
  H   2.09351612974281     -1.26226848742416      1.90052875183177
  H   4.72764627774484      1.51696597284821      1.80617933190674
  H   5.80489687569446      3.11041398395035      0.27316353237179
