22
Coordinates from ORCA-job 10241optt
  Br  0.95593457022798     -0.00361392616803      0.31467517811421
  C   2.81021777850662      0.18380461700105      0.15094548424310
  C   3.53253742042999      1.35150822441242      0.11342293381897
  C   2.95989994029062      2.69809010147925      0.13813031551135
  O   1.73060226213779      2.94182460873453      0.21665153480867
  C   3.91439534918654      3.76626782977415      0.05123817521456
  N   3.26880000271076      5.01021798712875      0.06153062652159
  C   3.78158364950836      6.24594703365445     -0.04118416706854
  O   4.95887644654175      6.54627516316311     -0.16362625190842
  C   2.74484121275625      7.29056709546418      0.01141068869511
  C   1.92087900243020      8.15976902551669      0.05072280092788
  C   5.29493075326177      3.58980449842470     -0.02497527040850
  C   5.81064411284443      2.30006917783867     -0.01994787803473
  C   4.95710203751440      1.20770584115383      0.04475851656718
  C   5.45110166745792     -0.13616141154499      0.09297310846334
  N   4.76961769799135     -1.21730970544314      0.12532695845076
  O   3.36714918578609     -1.06978225685859      0.07788991497014
  H   2.26057649640225      4.88593581921353      0.14187159812784
  H   1.18662317316838      8.92758436372290      0.08672581936111
  H   5.93782057920019      4.45430061471019     -0.08012174449739
  H   6.88094893361665      2.13689006449685     -0.06218210418708
  H   6.52391772802963     -0.30869476587456      0.12076376230885
