23
Coordinates from ORCA-job 10254optt
  Br  3.73341317494534      1.18397159280973     -2.99972710697220
  C   2.81484069265908      0.99143411680229     -1.23612238728912
  C   3.38912600744030      1.65240339221558     -0.11067138510532
  C   3.66707153142392      3.10355283292379     -0.15112617665793
  O   2.46913589765964      3.91133699766389     -0.44589202848873
  C   1.21183764605248      3.45238995527727     -0.33846839398562
  N   0.27653940642177      3.84121270863722     -1.08919400344451
  C   0.82576062141678      2.59155188877977      0.86238322298557
  O   1.21287567374065      2.82569746577425      1.97176259852031
  O   -0.05307324824741      1.63314916771948      0.53231837262572
  C   -0.17864704369510      0.48435363859228      1.37459011990084
  O   0.36538308185721     -0.63728795935064      0.72486247959226
  C   1.65972537894846     -0.33980084984791      0.32153818566582
  N   2.51510166939080     -0.04665873275470      1.32919611129403
  C   3.32485025626100      0.97243191946820      1.10524124757063
  C   1.90758137847476     -0.00884589352636     -0.99468378996865
  Br  0.80092915128423     -0.75980965966226     -2.39872360304962
  H   4.33763442701315      3.39366339976706     -0.96116282593452
  H   4.06143448139019      3.45249722735497      0.80437027544209
  H   0.66092475232602      4.45335421028767     -1.80991424700527
  H   -1.23989764342907      0.28842374762659      1.49935345667511
  H   0.32742444652118      0.68235578409868      2.31834312831998
  H   3.88702826014457      1.33862304934310      1.96372674930913
