22
Coordinates from ORCA-job 10252optt
  Br  3.92088617956285     -2.95413157470824     -2.09172415645144
  C   5.28553504630842     -2.79426766579972     -0.78907340000142
  C   5.35570269538830     -3.61598199183160      0.40794531649606
  C   5.65309762281182     -2.73080208881430      1.56516159886449
  O   6.89696832480847     -2.01534929386382      1.27238236140172
  C   7.12740205391295     -1.75377476345585     -0.03274197020979
  N   8.48910363623711     -1.61817064381083     -0.34819125892746
  C   9.24313906296931     -2.81245637791019     -0.46412998579619
  O   10.40724958516725     -2.84678749820241     -0.17258645650596
  N   8.49711306373365     -3.88186827330097     -0.94807985263131
  C   8.63933394879069     -5.23524768248014     -0.60057019405936
  O   9.57608330801988     -5.68507522753341     -0.00554765263585
  C   7.39939393943680     -6.08159837261535     -1.05750404447416
  O   7.63696550722618     -7.05601636540060     -1.75131121473489
  N   6.20737617309945     -5.57293187342241     -0.73239753996868
  C   5.97576007704216     -4.84124709725008      0.35454865699026
  N   6.25047326762529     -1.92619843048326     -1.00598693104147
  H   4.88556257621688     -1.97581171529677      1.74865615476912
  H   5.85389124812333     -3.28381961727371      2.48222455982998
  H   9.01264167737421     -0.95225520293820      0.20558574803373
  H   7.60080624937591     -3.65920005718611     -1.36050239421005
  H   6.32351475676883     -5.22300818642190      1.32484265526269
