23
Coordinates from ORCA-job 10256optt
  Br  2.45753670432118      0.86898157943084      2.14410630468512
  C   3.31667026347853      0.41308874035561      0.37838955013789
  C   3.76739034482826     -0.91757823758782      0.20224379559944
  C   5.11472369800605     -1.10260991626373     -0.17346927974039
  O   5.92011595107542     -0.02497180411430     -0.50789674594137
  C   5.47785631347177      1.24791013441641     -0.43504757043041
  N   6.20539757731678      2.23904841703905     -0.75241481989654
  N   4.18871958183212      1.41587835100866     -0.01249289902579
  C   5.71246614349704     -2.32767071919798     -0.17455789724020
  N   5.02722485019657     -3.41292010083109      0.27796400494605
  C   3.79387916290846     -3.30484742861451      0.58909031291332
  Br  2.93680917320962     -4.88189924444356      1.26932722590270
  C   2.95576382168876     -2.10695729307090      0.43247710992195
  N   1.67092933209325     -2.24209327654614      0.47356520039414
  C   0.79459628397220     -1.16927829985302      0.07885022416534
  C   -0.40069585406383     -1.69105767906744     -0.59999375317140
  C   -1.38798633666467     -2.06948612046005     -1.16596073914262
  H   7.11733053053661      1.90843677690384     -1.05062827724684
  H   3.89606325914897      2.37755335086663      0.05563403343683
  H   6.74649108442003     -2.45705174424962     -0.45950513842257
  H   1.27445468734831     -0.44181947872365     -0.59007411730843
  H   0.45188742381684     -0.59323926191577      0.94486290671190
  H   -2.25662399643834     -2.42541674508144     -1.66346943124810
