21
Coordinates from ORCA-job 10258optt
  Br  1.60478561773673      1.45373335606585      0.66768340295069
  C   3.26227921755656      0.63616043371536      0.34056883949721
  C   4.43714878087073      1.28779231172315      0.09713992344855
  C   5.60377947071098      0.51010452500429     -0.13532939234089
  O   5.42993437034038     -0.87963119426760     -0.28107908321511
  C   4.29941396181588     -1.52915221283207      0.04469396144710
  N   4.19180047934402     -2.79098227166238      0.01592310924529
  N   3.23285215153185     -0.74639686471398      0.41605474858744
  N   6.82861543421172      0.86257866505226     -0.37784810616098
  C   7.35039714680029      2.06979826757039     -0.13072826810073
  C   8.74085230869459      2.28086865701714     -0.63355918194035
  O   9.37569775537821      1.52718147997015     -1.32665591803830
  N   6.91195934249111      3.09982698433062      0.57628747523639
  C   5.63532937557831      3.31566482915696      0.96242712926268
  O   5.30126490096569      3.95796611825101      1.94496197983259
  C   4.55721383462849      2.76233757702676      0.04531443382841
  N   3.84337375085845      3.54221347493270     -0.65230881484253
  H   5.08052980149421     -3.19898581337859     -0.25671925870051
  H   2.38014041848573     -1.23569950026568      0.62704126478690
  H   9.15237565398381      3.25302292399722     -0.30512061684582
  H   3.17525622652217      3.00859825330641     -1.21074762793804
