25
Coordinates from ORCA-job 10251optt
  Br  4.49353017862492      3.74350420887520     -0.13993783911326
  C   5.54305190567761      2.85810552727958      1.18992226452205
  C   5.61039577830740      3.29745996262193      2.57591007844186
  C   5.88944102106523      2.10586460022933      3.41658885374179
  O   7.08005239805877      1.40764494980546      2.92731600400938
  C   7.34148662113525      1.57376192691915      1.62690215993340
  N   8.63573413244392      1.13168486513017      1.32551643820045
  C   9.77542574041843      1.68761222675835      1.90722011365470
  O   10.88041472508388      1.23921212085999      1.66592549545741
  N   9.55147273536738      2.77004868707046      2.71777086751224
  C   10.51776820241133      3.25636240003363      3.58531952107284
  N   10.54019950588634      4.39584597056709      4.14694324316353
  C   9.64245407691139      5.44448268534000      3.89945284503069
  C   8.31473011123182      5.46801181955508      3.65188247610272
  N   7.46682870000701      4.38371385320932      3.63214645902233
  C   6.46029080620564      4.39507509476397      2.78186335699397
  N   6.55908305924208      2.10067190528465      0.73258424498910
  H   6.13100031850293      2.37251999733669      4.44289993772453
  H   5.07607181129278      1.37878948643746      3.38795575810173
  H   8.79560009661315      0.72299385333065      0.41861489932396
  H   8.61022997144258      3.15362102009445      2.87799838597066
  H   11.33148516929345      2.55978143259362      3.76677112090910
  H   10.12819045748088      6.41210505369194      3.96598232235411
  H   7.89117713422956      6.45683627074031      3.45739153006223
  H   6.34688534306609      5.24429008147145      2.09505946281841
