22
Coordinates from ORCA-job 10257optt
  Br  1.21414742223375     -0.45828040736817     -0.85057972546263
  C   2.85370481540133     -0.01951297244469      0.18542654654826
  C   3.50652258041494      1.21875182708679      0.00389152650644
  C   4.89098741097782      1.22095256222757     -0.17028689890518
  O   5.66674834868625      0.08444342074603     -0.19209790344236
  C   5.07919120568029     -1.10944365362142      0.03091519792736
  N   5.74044032336860     -2.19691386115658      0.07133656106053
  N   3.72103502982670     -1.10758432863363      0.23431276414697
  N   5.43980313408806      2.41501075845952     -0.34213699723559
  C   4.38718677283810      3.26483301497775     -0.28976717674397
  C   3.16866764116891      2.61318306389767     -0.07503843981481
  C   1.89834389913314      3.24458089494667      0.11396364920379
  N   0.85726687951191      2.50690673225489      0.55282333842273
  C   -0.28409984783729      3.14158649407932      0.68172142245960
  C   -0.39027685632219      4.49916635851631      0.41187730049882
  N   0.67682364107377      5.18948876310083      0.01808361930150
  N   1.81410798829139      4.57562964985989     -0.14325987168408
  H   6.72379366812648     -1.99325444349135     -0.07578519450869
  H   3.33937828426760     -2.02680731305793      0.38988900902559
  H   4.52530485567100      4.33079058533465     -0.38578406956318
  H   -1.14165806028381      2.56240810825681      1.01518550771430
  H   -1.31641913631680      5.04906474602904      0.51230983454459
