19
Coordinates from ORCA-job 10264optt
  Br  0.89745003075398     -0.64886151125162      0.01668403413876
  C   2.75620925715546     -0.30801356572246      0.01584071153427
  C   3.30734474258358      0.97262825617845      0.01528342864708
  C   2.98968941478692      2.38471211996964      0.01486837760931
  O   1.89852665179147      2.96581723415546      0.01508090003235
  C   4.34329302489539      3.12944160061257      0.01417634138453
  N   4.55074045156734      4.37217076020200      0.01364693242111
  N   5.34148947977228      2.07849932466764      0.01424435198312
  N   6.67992984954689      1.87300881840300      0.01364283209248
  N   6.88009144766686      0.59086140414916      0.01396094659966
  C   5.66213246307615     -0.06587911627099      0.01468625683807
  C   5.07093265754088     -1.37674911325262      0.01525314313974
  C   3.65359091606705     -1.40981901263006      0.01581997419253
  N   3.40182421567690     -2.73814768819920      0.01632723551104
  N   4.53657738968352     -3.46720710713522      0.01618454821516
  N   5.53384705324618     -2.64691629760895      0.01539073457918
  C   4.71645983983450      0.90966876966164      0.01484063346997
  H   5.55141250537551      4.56778775428299      0.01323136059700
  H   2.50445860897909     -3.19300263021145      0.01683725701464
