22
Coordinates from ORCA-job 10269optt
  Br  1.06560113201606      0.24502652093482      0.06232578044502
  C   2.91898406445451     -0.06278898702035      0.06750159174020
  C   3.55216582644799     -1.29886959620063      0.06934201341517
  C   2.88389625073416     -2.57524788826414      0.07024530423514
  O   1.64603409489447     -2.72582960747427      0.06998076331454
  C   3.72754010672992     -3.80286264946039      0.07191074082695
  N   3.25400916057434     -4.99294462174029      0.07302047846522
  N   5.10409547003597     -3.64432028749582      0.07237273640667
  C   5.75335897963714     -2.44165182227431      0.07205722648395
  C   7.13981721381638     -2.35131069797481      0.07298266042440
  N   7.81976937840555     -1.20524249017565      0.07277092816672
  C   7.11551326142561     -0.07984596108417      0.07160121803225
  C   5.72364753844185     -0.05450369094275      0.07048538940081
  C   5.01575201643564      1.23746851071809      0.06902209971896
  O   5.55862073995225      2.33569630755981      0.06933173257307
  N   3.65609119893190      1.12023785965479      0.06752196998436
  C   4.99287621490688     -1.25233719712113      0.07064714172337
  H   2.23871482227668     -4.89917592383507      0.07243824016445
  H   5.63389722989809     -4.50258802490109      0.07365864201671
  H   7.72641141380781     -3.26713727573815      0.07390831795399
  H   7.65770663991540      0.85769929248082      0.07145754603225
  H   3.15149724626135      1.99452823035471      0.06641747847580
