20
Coordinates from ORCA-job 10267optt
  Br  1.46861096488159     -0.54651294489520     -1.28178852303092
  C   3.05396554539091     -0.12231793484166     -0.38626684958552
  C   3.49104671436822      1.13125094593725     -0.11565963628836
  C   4.88574842843579      1.20751728702089      0.24772276865125
  O   5.46349419091239      2.40592734499542      0.29356660825948
  C   4.82433054820710      3.53193597289752     -0.34066869693675
  N   5.60627194347411      4.47404702025848     -0.69586535162473
  N   3.49551599600621      3.52737086756285     -0.42959896794343
  C   2.79744186258740      2.41126727269995     -0.20030292733172
  C   1.39950875515953      2.51725069541697      0.12641902642491
  O   0.72517098683876      1.59965702927303      0.61165742733464
  C   0.78140557215812      3.82567618388523     -0.08475097013861
  C   0.19261714055235      4.85808709546700     -0.25011823524487
  C   5.62623885594490      0.10340655060649      0.52985617351949
  C   5.05573804247725     -1.19846015097873      0.40624172881974
  O   5.55184763574988     -2.26297469092226      0.66475618230106
  O   3.76604153144803     -1.22668369953189     -0.13876519049826
  H   6.56417884387982      4.21254421292888     -0.48242878345851
  H   -0.30350303638238      5.78596334052334     -0.39797816434872
  H   6.66232947790994      0.17904760169640      0.81897238111983
