24
Coordinates from ORCA-job 10270optt
  Br  0.61238676540314     -0.41231824903798      1.33680747303566
  C   1.70606769278664     -1.05228736958256     -0.11278251897428
  C   2.64869844529275     -2.03825647567383      0.10201565383106
  C   2.48247985698966     -3.05231704189320      1.21526073662910
  O   1.22124031062355     -3.76101623188607      1.08878753947151
  C   0.97125268172149     -4.45017104554841     -0.05456771584798
  N   1.78494756973636     -4.89289159244395     -0.89966025179271
  N   -0.45690707030348     -4.56151668224908     -0.31443157992485
  C   -0.67999971023500     -3.53473277003855     -1.27722689467768
  N   -0.75991126657646     -3.57585701105362     -2.55932611289084
  C   -0.24944547000354     -2.34402645252422     -2.97723459252833
  C   0.19660963610528     -1.63792116504388     -1.88336333564519
  O   -0.25437619216537     -2.34795308378895     -0.80975139585161
  C   1.32506162931134     -0.79930806820374     -1.49211812877151
  C   2.50218127838930     -0.79468263122905     -2.33226273441561
  C   3.59054100084384     -1.51743816923220     -1.91645386172441
  N   3.60978677298925     -2.29318775316514     -0.79938105640155
  H   2.41561256154343     -2.59808077404783      2.20079716020707
  H   3.31585379042569     -3.75686993867435      1.18339873445770
  H   2.74172681227839     -4.60165855801696     -0.70811429102872
  H   -0.95020001358813     -4.33378555030451      0.54361328601090
  H   -0.10591035006918     -2.13010100729422     -4.02155188576764
  H   2.48835439667140     -0.38366704521928     -3.33696073786832
  H   4.47194887182962     -1.57795533384838     -2.54749348953176
