23
Coordinates from ORCA-job 10271optt
  Br  0.99567644706837     -0.23770912377121      0.02209522472127
  C   2.85531706950217      0.01091400737130      0.10995972570555
  C   3.51917865366792      1.23518696033632      0.17463985684946
  C   2.86802289747271      2.50654293685999      0.37120652602761
  O   1.65753100665834      2.63360133746751      0.67739715319983
  C   3.66705567983241      3.74281315625731      0.12678000244828
  N   3.17896206809388      4.91925438800980      0.23272264623899
  N   4.98736750444289      3.59395493990426     -0.30683244799900
  C   5.73746978018506      2.47845822821392      0.22585746666052
  C   4.96467745483414      1.20536390419499      0.06588385022696
  C   5.57698106799094      0.01871877561573     -0.09577578664522
  O   6.89691613752134     -0.29672520378751     -0.20172915222680
  C   6.94758837906005     -1.71351402175312     -0.31036643060926
  N   8.05176516208942     -2.32093833287029     -0.43025979057359
  N   5.68582469955894     -2.25384697503664     -0.26328740620369
  C   4.88112025236710     -1.22136715357758     -0.13905665281019
  N   3.55140116180627     -1.19011983318726     -0.03747146526226
  H   2.19823246845199      4.80420647780074      0.49092655574132
  H   5.46972263532223      4.48122778465533     -0.26611296191785
  H   5.95493609366530      2.59927336260440      1.29941831308716
  H   6.69141527467090      2.39339643500376     -0.29520770638670
  H   8.80987679153115     -1.64489351997632     -0.43528033522621
  H   3.03296131420637     -2.05579853033544     -0.05550718504618
