25
Coordinates from ORCA-job 10282optt
  Br  2.38338597242670     -0.40921826182353     -3.17453333191904
  C   3.26832054649247      0.28051429604543     -1.62989901163749
  C   3.31845980350222      1.60352716089033     -1.29893805274814
  C   2.60547443028520      2.67792632227508     -2.04563422245379
  O   1.26189611537957      2.90749365799329     -1.51275657144046
  C   1.22540196707091      3.48799675721956     -0.27767379899312
  N   1.23626831125758      4.74192283659680     -0.08657457993322
  N   1.14640823697117      2.56771551810778      0.74782985477399
  C   1.75589418012402      2.76705960919326      2.00816549894560
  N   1.99552492496518      3.86542537853076      2.57311272218832
  O   2.08785001331788      1.58194460995489      2.56464684678120
  C   3.51363625088780      1.22179206570914      2.38400434988523
  C   3.80638629601407      0.87071120783365      0.97417057392315
  C   3.80973200218225      1.89044026868508     -0.00690063940630
  C   3.72678402069573     -0.48383271714808      0.58922475073804
  O   3.67252444602135     -1.50078338004219      1.24562948830692
  O   3.78078841093360     -0.68557120555402     -0.85016826902459
  H   2.43165935424561      2.42912689411373     -3.08874934901457
  H   3.15301139809127      3.62225530124922     -1.97727929775588
  H   1.32273585070957      5.21325145314540     -0.98234592719817
  H   1.22775479673958      1.60859788868669      0.43535671395758
  H   1.67402014060450      4.63298980752837      1.98648970541295
  H   3.65175606345741      0.37356420971495      3.04803682810959
  H   4.08555902632271      2.08400930165293      2.73502114595481
  H   3.92376744130161      2.92714101944144      0.29576457254741
