23
Coordinates from ORCA-job 10281optt
  Br  1.01319649775215      0.22957775902795     -0.40055754768036
  C   2.88733348365360      0.07891762448567     -0.26647836590848
  C   3.51267168218728     -1.14400189701263     -0.00347617631457
  C   2.84852189790251     -2.44282018076737      0.28953189777357
  O   3.48533896857761     -3.49406472721572     -0.46539115142313
  C   4.82691172985823     -3.61401604697163     -0.34855963349468
  N   5.41804941379430     -4.70494541446628     -0.60392852383966
  N   5.51988716498916     -2.46887212857801      0.04219978739747
  C   6.81130386835271     -2.65731665702453      0.58512206295558
  N   7.66933594900086     -1.78909256790105      0.89188965286344
  C   4.90188618207344     -1.19255115039963     -0.10262195435543
  N   5.69114545595505     -0.18289494926909     -0.36844072820617
  O   5.04944451525137      1.07278388968551     -0.37032228566110
  C   3.67499067614960      1.23845842138866     -0.49353217288370
  N   3.23856553766133      2.41378687728317     -0.74999451799228
  C   2.86575473608162     -2.79804282544663      1.71928252689775
  C   2.89104581842633     -3.06886598002832      2.88640253162087
  H   1.81703723018658     -2.42942521990746     -0.05882104717704
  H   4.71808080486589     -5.42091743952271     -0.77451865330664
  H   7.00375629287235     -3.71306225369447      0.74292416103248
  H   7.34685102055081     -0.85541518996695      0.63480885575588
  H   4.03406222139148      3.03731214009049     -0.86820371680292
  H   2.92382885246563     -3.29853208378892      3.92368499874913
