22
Coordinates from ORCA-job 10289optt
  Br  2.64890426629815      1.61935475447011      1.54337016700180
  C   4.34192409923094      0.70244966296013      1.24716350683328
  C   5.36225638481387      1.22018996778908      0.44188458843604
  C   6.05247172943089      0.28570243649690     -0.37220937438562
  O   5.40880497747789     -0.91751070101233     -0.64030584864696
  C   4.42298833888536     -1.38336318145223      0.14750783491965
  N   3.81993693499993     -2.46526739545097     -0.06661257250631
  O   4.14165349750111     -0.66324354023756      1.25232483170369
  N   7.20352879274865      0.41815009229873     -0.97794713642293
  C   7.81610270327733      1.49555957911480     -0.41889588324243
  C   8.19403167401941      2.68399184787701     -0.93574835085283
  C   7.95487449358376      3.78472221984736      0.00218077670770
  N   8.32876564229412      4.99988432706663     -0.03529586173081
  C   6.85960941212565      3.39973303763619      1.01896790749254
  O   6.90680516225448      3.63315243328913      2.19265521029952
  C   5.61764907849988      2.71202633318207      0.38590504730714
  N   4.81197605976229      3.54436986121541     -0.12248985559427
  H   4.21533008258179     -2.90291629029085     -0.89384877740968
  H   7.81920671511393      1.46481057301562      0.67717573329669
  H   8.25470774349808      2.87713785095903     -1.99995198569557
  H   8.98830652721468      5.12937915366903     -0.80525838511235
  H   3.98616568438762      3.06868697755669     -0.48957157239827
