22
Coordinates from ORCA-job 10286optt
  Br  1.16548445020971      0.45447441429045     -0.10917972459532
  C   3.02042422260428      0.10963888584357     -0.04074867982360
  C   3.58686027142431     -1.15435690328253      0.00097972226094
  C   2.80133312810613     -2.36465075940419      0.01285695084573
  O   1.58264451668607     -2.45249249045641     -0.00870643966673
  C   3.59640536992673     -3.65143110656078      0.06051891104847
  N   3.05471416519619     -4.80767112560179      0.07753838121608
  N   4.94683120421962     -3.50171905316376      0.08433355504441
  N   5.68650430004249     -2.36246869504848      0.08144886646527
  C   5.06057107835617     -1.23523522799009      0.04009210618533
  C   5.83851190558500      0.00599182082190      0.01223105806367
  C   7.27632444905580      0.03679570965228     -0.06771430487767
  O   8.06622159092656     -0.89229905474945     -0.00676714780031
  C   5.14010919152951      1.23530256352170      0.02502443840198
  N   3.74876226273715      1.20968618128879     -0.02978492043986
  C   5.60895503742783      2.57690033861886      0.11250389948639
  O   4.83162093219675      3.55268098308270      0.08515466224861
  H   2.04576791985092     -4.66806240175167      0.05309292315665
  H   5.49622765263485     -4.34477334232072      0.12165948973416
  H   7.68295781463456      1.05471420852889     -0.21662921133686
  H   3.32991423770383      2.13698334977521     -0.03081401711212
  H   6.68585429894546      2.73799170490555      0.21990948149477
