21
Coordinates from ORCA-job 10287optt
  Br  1.93718294314888      0.05391210314326      1.32963860329095
  C   3.40430269827620      0.03114974723588      0.18264300331513
  C   4.05374567613532      1.08030904230518     -0.33698472121772
  C   5.37254543381138      0.74233140420291     -0.86516729340421
  O   5.99338137674357     -0.35164467315331     -0.29040358858774
  C   5.23381046708899     -1.41884785136397      0.03833966178794
  N   5.69578999347228     -2.54224645673023      0.34551589355493
  O   3.88888591489404     -1.24313409999499     -0.01053026316926
  C   6.08862205928220      1.71971621418438     -1.43892879645346
  C   7.08417780209268      2.32079015013889     -0.50295368682392
  O   8.23948723992275      2.08992855334395     -0.32580520711745
  C   6.22585946709017      3.29510183292498      0.38855056554480
  N   6.94512252738387      4.07388629906083      1.12902298170709
  N   4.86622466035292      3.35361588296493      0.33997285695546
  C   3.88285307510227      2.52153908508565     -0.04086834527965
  C   2.56877979237820      3.10316587761317     -0.14372563787784
  O   1.55652933071978      2.54140078859084     -0.55280675355106
  H   6.70813300950220     -2.52125512015015      0.26271670429200
  H   5.43573792723303      2.48670234400942     -1.83492670251282
  H   6.30214912530303      4.65579341719422      1.66839684964787
  H   2.55067948006616      4.16578545939413      0.15830387589896
