24
Coordinates from ORCA-job 10296optt
  Br  0.89811806126645      0.12972262903439     -0.53915878056404
  C   2.78082724292844     -0.01980275457286     -0.43251703672161
  C   3.47612278586183     -1.23631523528872     -0.33727533157566
  C   2.87390838359075     -2.52652010126644     -0.54137109420434
  O   1.73959413330330     -2.73208374522326     -0.98814444023509
  C   3.64728195911734     -3.75757652759994     -0.09482700470332
  N   3.13517030604859     -4.90938484306862     -0.07015455738017
  O   4.92189804319448     -3.61862162976664      0.36121378896296
  C   5.63965681991900     -2.50312874458976     -0.11575732914491
  C   6.10916091451847     -2.75712122576222     -1.56457189126274
  C   7.09342071750473     -3.82963040017822     -1.65733833141302
  C   7.91631528802343     -4.69871786806897     -1.71658303052184
  C   4.87490468387507     -1.20398128204331     -0.03567793339445
  C   5.61795534076810     -0.09211524382747      0.21395739594505
  C   5.15601661935368      1.27358720892584      0.17886590624463
  N   5.84269549838064      2.32685196282749      0.42362250528791
  S   3.47976596316786      1.57061428512075     -0.28946587403453
  H   2.17683069593631     -4.79700440014987     -0.40613056311219
  H   6.51967842496164     -2.43949730027206      0.52411296894743
  H   6.53707961088510     -1.83363749303807     -1.95897356469980
  H   5.23386075752672     -2.99696597535331     -2.17352346852315
  H   8.63230227707725     -5.48218630330897     -1.76729277129257
  H   6.67393350804738     -0.21009846911703      0.44163365802108
  H   6.79850196474336      2.06061345658730      0.65835677937438
