25
Coordinates from ORCA-job 10293optt
  Br  1.11907165636071      0.33885028253702      0.50518447237491
  C   2.88372207714777      0.07107619252396     -0.19370758813460
  C   3.73944553593984      1.13541485631056     -0.33089912120230
  C   3.45990750406797      2.60456916189719     -0.24814568850064
  O   2.80851785125500      3.04688065924159     -1.45440568179199
  C   2.33946367424529      4.30279342890059     -1.42927483626005
  N   1.77485985605159      4.87898356791192     -2.39634549918613
  O   4.70696799572875      3.22815701727008     -0.11661841553974
  C   5.71858052095387      2.33969186825553     -0.63017095093856
  C   7.06187226203616      2.46364415508674      0.10988686460649
  O   7.40412287764003      1.32787710418601      0.86645070792830
  C   7.31225764643293      0.12223510986541      0.10042935373424
  C   5.87794969039235     -0.15597813413120     -0.24414984340956
  C   5.10693389332701      0.98587359216726     -0.47384042821858
  C   5.32282705064320     -1.42840951520591     -0.03972064619615
  O   5.87465853740533     -2.47858392993832      0.25763515725367
  S   3.47013472307079     -1.56759679461570     -0.27226592527098
  H   2.83008051689052      2.89795327744107      0.59470710367788
  H   2.47426977735758      4.82215847181894     -0.47964033057841
  H   1.74026575766467      4.24702810574705     -3.19768753498297
  H   5.87364066657767      2.59861271871500     -1.68529666715945
  H   7.01401949439795      3.30943798722400      0.79623937605537
  H   7.85354621956318      2.65341213788411     -0.62879605390659
  H   7.71209238215974     -0.68227535470127      0.71499345242111
  H   7.95479183269000      0.23419403360836     -0.78756127677527
