21
Coordinates from ORCA-job 10306optt
  Br  1.03304071961285      0.16594902496773      0.04305599275112
  C   2.93916348568691      0.11600460477059     -0.03314884035649
  C   3.61180626514285     -1.10590415231844     -0.13075148456340
  C   2.95491474246551     -2.40263723869056     -0.32028662243273
  O   1.78111321939309     -2.57235679604229     -0.60672255756685
  C   3.79545359843225     -3.67490467245563     -0.21681626972383
  N   5.04495663407027     -3.49278575502588      0.51266106953510
  S   6.06355064607274     -2.40917513385462     -0.22883137254778
  O   7.25395380887742     -2.35655784442039      0.56904682454623
  O   6.20826572767815     -2.76098061490744     -1.62262329806229
  C   5.05691529857411     -0.99343684067002     -0.06089573700216
  N   5.73107979172628      0.14830390043628      0.05294499438349
  C   5.05708798669541      1.26429112138047      0.10694450309605
  C   3.61974326877277      1.33110905564024      0.06406698821129
  C   2.99994431670805      2.63779739374677      0.10530081160820
  O   3.62927845641479      3.68783810817632      0.16843487723100
  H   3.95798660999946     -4.03751967950656     -1.23869562007161
  H   3.18195267028224     -4.40038513546961      0.31444477143789
  H   5.55502540975134     -4.35493341267515      0.67487903401012
  H   5.60356763997899      2.19424694392402      0.19771433203796
  H   1.90219970366446      2.66103712299420      0.06227760347868
