24
Coordinates from ORCA-job 10308optt
  Br  5.37680892202874      4.04712140893715      1.23272933848443
  C   5.68099947235752      2.37900434299434      2.19014223793451
  C   6.52541628831934      2.40185460623198      3.32659843954794
  C   7.04178397747349      1.02207001416680      3.56998604989294
  O   7.87991249267438      0.67353547471008      2.40087251444934
  C   7.42270000544858      1.28754646098628      1.31199991912116
  O   6.07929409045940      1.31833728335139      1.24458156754129
  N   8.16383629420558      1.95482343366547      0.49288164849861
  C   9.25782613033164      2.51043694680835      1.12102047777994
  N   9.91097027609051      3.50874155678437      0.65989161009265
  C   10.55428633651491      4.25541639801650      1.66714508148753
  O   11.72576771940129      4.53793885363206      1.71694249177883
  N   9.60729753626246      4.68915358250611      2.59992231553109
  C   9.86052087617379      4.99490659790076      3.94138756537856
  N   9.20733179736841      4.53814721047671      4.93966097588357
  C   8.20624039655408      3.56641378745326      4.78663000554062
  C   7.23051889127239      3.52705621253000      3.82339779388915
  H   7.71255271897955      0.94655309304817      4.42020128002978
  H   6.25307362274651      0.27271316716645      3.63667060888624
  H   9.44456744349851      2.16758319524309      2.14351116862521
  H   8.68270444140789      4.34355839517814      2.41158565629058
  H   10.72080059923627      5.63437451226592      4.10769804930427
  H   8.30552175036078      2.76279982571848      5.50823611772830
  H   7.01726792083349      4.45891364022797      3.30430708630328
