24
Coordinates from ORCA-job 10302optt
  Br  2.14730112239684     -0.36738094255747      3.36146840156980
  C   2.98942233078160      0.14924152510342      1.71135392689826
  C   3.18832621576500      1.48693935665012      1.44823867711706
  C   2.38405715886733      2.59491270121452      1.99978094538886
  O   1.08188555818966      2.83945895845502      1.32105210783962
  C   1.21025532470575      3.35107746397043      0.09256586901735
  N   1.18276260083300      4.58021451819268     -0.21568629730454
  O   1.36902000013536      2.40062266714347     -0.84170160605958
  C   1.96109980157968      2.85796942340360     -2.04542831696301
  O   2.31776658193935      1.77077279406568     -2.83495985129031
  C   3.25776587510727      0.85632017105018     -2.45623081811823
  N   3.83608379529025      0.23875581626709     -3.39217680079292
  C   3.49598178928550      0.57461331086130     -1.00437040373387
  S   4.23232349308686      1.81547459773638      0.06913755627461
  N   3.18213629511577     -0.56824807504448     -0.55959562874850
  C   3.28884887793771     -0.91540817187937      0.80667185360303
  N   3.46687589721259     -2.16048401564701      1.16624451537743
  H   2.91900935276948      3.54648655241717      1.95495064964678
  H   2.08649117809469      2.38419339748233      3.02302236936191
  H   1.07133702541806      5.12707539147772      0.63271226483558
  H   2.82163487502323      3.47883757409654     -1.79194674782678
  H   1.23674791720043      3.42649122541784     -2.62482414586700
  H   4.44473728826910     -0.46788027667826     -2.98643378375088
  H   3.53512964499543     -2.71905596319893      0.31715526352532
