22
Coordinates from ORCA-job 10303optt
  Br  1.47610420957151     -0.09201418631423      0.81518670655630
  C   3.17126651621283      0.02126679095871     -0.07779028342189
  C   3.88543400869565      1.25220122499439     -0.07854999370717
  C   3.30277464721115      2.51048478646034     -0.36537195578596
  O   2.12715010967768      2.73923249462729     -0.64402429941549
  C   4.25528017120271      3.69184986785812     -0.33684448216005
  N   3.88172941761195      4.87613113355318     -0.57255825273155
  O   5.57494949717219      3.50241199997820     -0.07998972519726
  N   6.10341924581848      2.25623308201828      0.24713964470081
  C   5.28151663827156      1.26601311701660      0.24158580040758
  N   5.85728305492498      0.05823281723232      0.66362000456865
  C   5.30178505487946     -1.13634119511084      0.28178266356739
  C   5.78673508973200     -2.38424381978938      0.18654060789401
  N   4.67921308195004     -3.22574909456801     -0.11086476355108
  C   3.56406643165478     -2.43727953059794     -0.38978277138422
  N   2.43170166216609     -2.75055858586329     -0.88648450885701
  N   3.94074329486866     -1.14806414744476     -0.01906540337247
  H   2.87935083926237      4.81853769966800     -0.75793956323380
  H   6.85925608128548      0.09457434713396      0.76695243425585
  H   6.75961842998828     -2.76989036676944      0.42683192712242
  H   4.80701994877171     -4.03753213897316     -0.69091906854277
  H   2.38360256907036     -3.75149629606836     -1.05045471771231
