21
Coordinates from ORCA-job 10315optt
  Br  1.28807878403009      0.18946705077571     -0.08964726006472
  C   3.19541916190077      0.09700448749849     -0.09439451113114
  C   3.80613575749131     -1.12003250660447     -0.07505140477445
  C   3.24941042640602     -2.50822572030775     -0.04041368384517
  O   4.38818540082828     -3.35701127188815     -0.03620438815373
  C   5.56950461275077     -2.61672955241788     -0.05422547994370
  O   6.63077165370094     -3.17709480793861     -0.04653892467720
  C   5.20541414502393     -1.21336503147026     -0.08031968304229
  C   5.94550912815173      0.00255283594094     -0.09698148808658
  C   7.31102882902586      0.39645422739631     -0.13052261213928
  O   8.38139306812956     -0.19608511279338     -0.16474681212132
  C   7.25008262595561      1.94859845033230     -0.08752784862405
  O   5.89285878777928      2.31863483097650     -0.13130050726676
  C   5.14941079347761      1.18111542848738     -0.10933883043902
  N   3.85449534656316      1.28280789634314     -0.11533059188008
  C   7.93839507999078      2.39708818902959      1.17517600775468
  O   7.42326466591449      3.00251405204175      2.07228271252958
  H   2.63227386348838     -2.73263561019734     -0.91416771030986
  H   2.65481585485147     -2.69364744200975      0.85799345917487
  H   7.78888284692238      2.35525457436754     -0.95035967870151
  H   8.99466916761752      2.07033503243794      1.21761923574173
