20
Coordinates from ORCA-job 10317optt
  Br  0.68813162905819      0.07364404776643      0.10666158367875
  C   2.58325556080566      0.08167338714519     -0.04107988791147
  C   3.27764429458439     -1.14607774391867     -0.19489949448081
  C   2.93598935548791     -2.51901922571300     -0.26022967543604
  O   1.86800440102485     -3.13466486343829     -0.20916722745733
  C   4.30691403340595     -3.24735344829047     -0.38031334746561
  O   5.30748209754842     -2.21544160426650     -0.43261842414047
  C   4.68761572619439     -1.02514701524555     -0.29426771015757
  C   5.31958097127941      0.18166088757741     -0.24931090091958
  Br  7.19118694896242      0.32753361188926     -0.39954558737438
  C   4.48388344417449      1.31724568760622     -0.08023161344781
  O   5.05863797669008      2.59111400108428     -0.06310709545991
  C   5.58307048431946      3.01749065471589      1.09182854532185
  O   5.58715288178031      2.44104006142507      2.13503639258976
  N   3.18315645144192      1.25227937041500      0.01538868874282
  C   4.40327487977511     -4.11589392011270     -1.55010982568167
  C   4.45459789469996     -4.84714074050865     -2.49758229698335
  H   4.48142605942317     -3.84578838671849      0.52052188804147
  H   6.02370124538199      4.01029092934021      0.93168406850835
  H   4.48929366396187     -5.48644569075263     -3.34565807996699
