19
Coordinates from ORCA-job 10329optt
  Br  1.04993253840104     -0.19858839404495     -0.11458240734977
  C   2.93180424463745     -0.04415918687319     -0.08637980364409
  C   3.73109008355704     -1.15445166321338      0.08585168211201
  C   3.38693823418960     -2.60071042303728      0.23396400482686
  O   4.63900564843285     -3.27812552867527      0.27805973020789
  C   5.68202208688519     -2.38504981877537      0.15027091741050
  O   6.81876649425699     -2.76156807620960      0.06917843503821
  C   5.11104199033458     -1.05016999204040      0.09318142138836
  C   5.67774102254257      0.19848968878573     -0.06204278043727
  O   7.00193721974363      0.50115894390957     -0.05091676482068
  C   7.75174260651648      0.04784835050482      0.97341840360253
  O   7.36755934435023     -0.48013270802813      1.97600880667922
  C   9.16505426283016      0.30273504975622      0.68501850453695
  N   10.27942465744228      0.52675776019158      0.52951856182623
  O   4.91728711131592      1.29736795742533     -0.30468788050329
  C   3.50549723098682      1.24370212090727     -0.31843408684521
  O   2.94308549150447      2.28495913185761     -0.53396152635606
  H   2.80445155387210     -2.97499079277495     -0.61193711437444
  H   2.83261817820043     -2.80407241966559      1.15347189670203
