25
Coordinates from ORCA-job 10327optt
  Br  1.08058132931139      0.09466966421725     -0.39050241454745
  C   2.96819351024255      0.00073838836274     -0.16065519052149
  C   3.60425548247598     -1.26213637619191     -0.12717713066287
  C   2.88786298241893     -2.58383029470002     -0.02454396742184
  O   3.72740858149730     -3.66778739369531     -0.36838339485908
  C   4.99368939175713     -3.56495312977368      0.21016942447591
  O   5.71109169798366     -2.46567072219085     -0.29144964047498
  C   5.01848138113288     -1.28470083431491     -0.12438630526907
  C   5.71503421158036     -0.12475763816217     -0.06403335377037
  N   5.07981265298418      1.11365024677208     -0.10231931052749
  C   3.66015897530322      1.23686132738883     -0.14648670958395
  N   3.10268981520044      2.40968131299085     -0.16355755237047
  O   7.08759751831987     -0.04108352610086     -0.23678155665788
  C   7.85990533687097     -0.74214947833252      0.62241333099635
  N   9.09867583392924     -0.90482822850301      0.47827884191534
  C   2.37829011479874     -2.69053541841565      1.40542521418209
  O   2.70721806969158     -3.53882169317998      2.19839084131309
  H   2.03252440560271     -2.61503914298591     -0.70602221622619
  H   5.54915004077196     -4.45544623001776     -0.07396618712472
  H   4.90819535147623     -3.48000129027921      1.29766272309627
  H   5.53011760422197      1.84424824472852      0.43361350208650
  H   3.81955780961778      3.12951242472985     -0.20777116100786
  H   7.31717453398133     -1.15129690246467      1.47245078272130
  H   9.40638000357817     -0.46830283021245     -0.39158199973014
  H   1.70895336525122     -1.86102047966922      1.69321342996898
