27
Coordinates from ORCA-job 10336optt
  Br  5.43204705104128     -4.21228352527193     -1.36542982091216
  C   4.84545096878515     -4.29700568050830      0.42753269271857
  C   3.84395045250249     -3.50396210705986      0.94005733990595
  C   2.94030001632827     -2.48601629580786      0.31490153531627
  O   2.12228343869417     -2.02403611835310      1.39623945179181
  C   2.42431698626323     -2.68215642728430      2.56944346124910
  O   1.82380033467489     -2.44063101218627      3.57917458615066
  C   3.51239411414906     -3.61789176378482      2.27994847877735
  N   4.06238496233302     -4.43227604068816      3.18051064806144
  O   5.08161007902804     -5.23439244163598      2.62254390651214
  C   5.50439767736860     -5.21861309670742      1.30655861071876
  O   6.39275942933088     -5.98841538265838      1.02112088747631
  C   2.03962803598731     -3.01619331885486     -0.80006419412661
  C   1.27599503976851     -4.29437991272175     -0.38972341466424
  C   -0.15210883988066     -4.08886711202348     -0.90106274076589
  C   -0.36655106670303     -2.58986324079346     -0.69627393853438
  C   0.95040541971695     -1.98581594937116     -1.19219646293113
  H   3.50788311704282     -1.62689433824150     -0.05843076935676
  H   2.68928349450008     -3.22318246878071     -1.65035528405653
  H   1.25771869782312     -4.37673030341113      0.69998039794709
  H   1.75398761263967     -5.19606172693635     -0.77157542247305
  H   -0.88224421498720     -4.70856436452666     -0.37913346262044
  H   -0.21162701504684     -4.32724832540352     -1.96790782389010
  H   -0.47986050741600     -2.38333437511918      0.37053340736992
  H   -1.24121490417549     -2.19701264577509     -1.21724472649740
  H   1.14489184695358     -1.00303316192824     -0.76160230414363
  H   0.91711777327802     -1.87413886416644     -2.27854503902310
