22
Coordinates from ORCA-job 10337optt
  Br  1.18275521726249     -0.09020730983845     -0.02345977246159
  C   3.06371281654119      0.07400998323338     -0.07365385963087
  C   3.74705811354713      1.25636261018808     -0.13823063858530
  C   3.54914948333130      2.70467768312194     -0.19572865855038
  O   2.48196107613421      3.33879117154060     -0.20648794211506
  C   4.95575637898413      3.32080565420800     -0.24181605566131
  O   5.19841608387347      4.51989007312740     -0.30285778396751
  C   5.90828609175242      2.18243421180958     -0.19898990711009
  C   5.14757844908654      1.04623371131028     -0.14670023092741
  C   5.88422976761238     -0.14757270999424     -0.10377887913977
  C   7.26505693112959      0.27864800506384     -0.13111334993429
  C   7.25128366661656      1.66529004935609     -0.18572529226315
  O   8.41789982153626      2.38050743683811     -0.21106988180833
  C   8.35465100264901      3.73755673732977     -0.26760581631227
  N   9.39383872056919      4.44861896666208     -0.26729201418398
  C   5.10192521153038     -1.28339130661313     -0.04568711060550
  N   3.74014353842151     -1.12190772321039     -0.03432404231961
  H   8.15452407971850     -0.33039574668850     -0.10987018180858
  H   7.34928666166641      4.16375995752112     -0.31488561263102
  H   10.22034817867044      3.85089935550048     -0.21450055008969
  H   5.44165291742111     -2.30777562902501     -0.00721357833410
  H   3.16948579194572     -1.95023518144104      0.01399115843981
