23
Coordinates from ORCA-job 10330optt
  Br  0.88268828849782     -0.12794063538082      0.12819139711543
  C   2.77422194851477      0.00833206683105      0.01493414108471
  C   3.57186937294277     -1.09442272825700     -0.05040458160030
  C   3.23727293071819     -2.55229796732191     -0.06753404954831
  O   4.48425529937926     -3.22744166873107     -0.12502075024227
  C   5.53571040580735     -2.30263013457939     -0.16548336445092
  O   6.67447391503180     -2.70188457256858     -0.23023394280934
  C   4.97004981884622     -0.97970243852674     -0.11488211805700
  N   5.66370738502087      0.20519393877198     -0.12074413348409
  C   4.84004781500523      1.24452202796423     -0.05816861939080
  C   3.42483544290184      1.27932596551442      0.01174035169051
  C   3.01981438411797      2.64210257123895      0.07872489761136
  C   4.16832982361190      3.38389236319489      0.04163520608801
  N   5.26179510113328      2.55717426095464     -0.04762188568557
  O   4.37759184246307      4.74150528510939      0.08121284288018
  C   3.76318639376147      5.48944839506315     -0.86789503160604
  N   3.73238831248935      6.74481417056939     -0.85807101025984
  H   2.63533927114276     -2.82325545917302     -0.94022356382695
  H   2.69463066991348     -2.86112991057344      0.83054211935182
  H   2.01547698843759      3.02607113806039      0.15764769340506
  H   6.22454809026650      2.84349518976944     -0.07433088182672
  H   3.28788799632136      4.89979567765656     -1.65031372544718
  H   4.21787850367508      7.10303246441344     -0.03470099099177
