27
Coordinates from ORCA-job 10339optt
  Br  1.62089844316973      0.83934431044299      1.00975202108379
  C   1.62243833020084     -0.97325008911340      0.25152353508251
  C   2.71564375286726     -1.81206188820786      0.63676953904624
  C   2.53804833681728     -3.30670680712887      0.46003457750547
  O   1.41241003237390     -3.86400925190059      1.19847807083419
  C   0.85273213551482     -5.01950559676300      0.68904446580541
  O   -0.41841260095942     -4.83631774749633      0.01178297501756
  C   -0.29858122970800     -3.95003123088525     -1.01370733776397
  C   -0.06670751382734     -4.09121642304129     -2.36438397142014
  C   0.42891386559278     -2.82893408661346     -2.81574854350934
  C   0.49017105709148     -1.97856128182473     -1.72406173693945
  N   -0.08854928284781     -2.65893994948298     -0.68426271059658
  C   1.46092351270279     -0.98533150569125     -1.23071687570882
  C   2.61646774642456     -0.63330023073157     -1.83740167533023
  N   3.75421016523833     -0.45876176660111     -1.03743472424174
  C   3.97015322319627     -1.34566321929369      0.08011166355937
  N   5.15575185968774     -1.75097702055592      0.39870186703229
  H   3.45215921956055     -3.80228563790448      0.79202968810749
  H   2.37770449352731     -3.56751476854561     -0.60224273337574
  H   0.60039081241321     -5.68249526431210      1.51575346345743
  H   1.53267272335496     -5.50647840161290     -0.01904542856758
  H   -0.16919505778891     -4.99780691950594     -2.93777951253583
  H   0.81709723524371     -2.62094319334770     -3.79987635087526
  H   0.04743606225991     -2.34372726414926      0.27116181885434
  H   2.76850129965559     -0.62980135757632     -2.91120503348109
  H   4.59471366582831     -0.15850910305313     -1.50419850261241
  H   5.84000771241008     -1.45521430510420     -0.29707854842789
