22
Coordinates from ORCA-job 10333optt
  Br  1.04088455573712      0.15680577770020     -0.08454715134195
  C   2.97574987290511      0.02514201600636     -0.03390666450275
  C   3.52234605222599     -1.25295182613728      0.03838243113354
  C   2.77167095456941     -2.55826315456856      0.04692369483896
  O   3.65836453542337     -3.60803170743961     -0.32120484189577
  C   4.85635273125302     -3.51935107236648      0.38925199739240
  O   5.61829162215415     -2.40350074142476      0.01036191152348
  C   4.92836380604839     -1.22811165287474      0.00595990696367
  N   5.64598507309899     -0.14735846944804     -0.06338121829851
  C   4.99587731628370      1.04029296432071     -0.09530781368510
  N   3.62754195131266      1.13020198627862     -0.09168116259982
  C   5.72940038215776      2.28465984244098     -0.14694208696063
  O   5.15055920329699      3.40047814141613     -0.20650634936158
  C   7.21471223392400      2.32465103186598     -0.12532206157182
  O   8.03385246579239      1.43776157244920     -0.01262897687884
  C   2.14635786528150     -2.84957426348648      1.35347820719477
  C   1.66032973038117     -3.09142340358319      2.42134181538966
  H   1.98672958007140     -2.54624480763696     -0.71101758215467
  H   5.44716940197354     -4.39731775025217      0.14403791191646
  H   4.65016146160265     -3.47233343591638      1.46625500461637
  H   7.53932518214654      3.38342043420999     -0.21974139450476
  H   1.22297402236012     -3.28795148155352      3.37019442278688
