23
Coordinates from ORCA-job 10343optt
  Br  1.20898296855738     -0.33736602741038      2.22920170873795
  C   2.63522718353504     -0.02208173842836      0.61355767267302
  C   3.39654846677666     -1.14971173791970      0.29161236131307
  C   2.70984982204108     -2.46424852107456      0.13094690885494
  O   2.92788749622992     -3.10786302331831     -1.14570360305712
  C   4.12503654828095     -3.59390918329979     -1.46391250087321
  O   4.27357562287945     -4.21209235843605     -2.48079322980869
  C   5.26550766117651     -3.34002528891123     -0.47301027327370
  C   6.61627715136894     -3.92730899340640     -0.94062822338837
  N   7.59631319965051     -2.84147880357569     -0.85758545203172
  C   6.95983392150315     -1.78725128480588     -0.55260910025056
  N   5.59439477174715     -1.92105951982320     -0.35126069872163
  C   4.76005408779328     -0.91468722615119      0.12268298268295
  N   5.36985123581824      0.24431817607935      0.34581095556443
  C   4.64094332722376      1.30849347663998      0.72088917878790
  O   5.04240805850131      2.40232908521534      1.01082090554347
  O   3.22291726830634      1.15498824619479      0.74851819237987
  H   1.63794370205801     -2.29791761831501      0.16890518769487
  H   2.95728878201091     -3.17907308396325      0.91889990153546
  H   4.97129784824632     -3.73962843145583      0.50119283533791
  H   6.92928347149084     -4.76810326208801     -0.32229136501501
  H   6.53462343870258     -4.27808632395795     -1.96972540989725
  H   7.38795396610153     -0.80223655778861     -0.43551893478858
