18
Coordinates from ORCA-job 10358optt
  Br  0.92266543359669      0.02866741180958      0.22408305981135
  C   2.79723986649717      0.07821490033906      0.14917473224130
  C   3.50818396105145      1.21237100859131      0.09836487851732
  C   3.11978380655400      2.65809013714579      0.07896196418049
  O   2.02273816141363      3.13509018586775      0.09219724944657
  C   4.46076180522416      3.44348265542860      0.03026294225937
  O   4.52268828356370      4.65967729286566      0.01170498157023
  C   5.49508781119982      2.45591560182251      0.01551020319497
  C   4.95996227549673      1.16328079624884      0.05293615578144
  N   5.64873970336416      0.02460387632061      0.06528421762923
  C   4.96556209656770     -1.11433548856624      0.11984126270121
  C   5.78546812972893     -2.33355406121041      0.16042543834096
  O   6.97899190090425     -2.36329166240705     -0.03816782171145
  C   5.15024391681065     -3.62747531053755      0.52548663609425
  N   4.83389521656978     -4.68328408214746      0.84117497617232
  C   3.50280829661756     -1.22665159516708      0.12984713230046
  O   2.90396749289305     -2.29173814408264      0.10378767052391
  H   6.55221184194650      2.67293647767874     -0.01587567905396
