26
Coordinates from ORCA-job 10363optt
  Br  0.52982759547363      0.23990630653896      0.54382265963722
  C   2.90122545033935     -0.08607984800708     -0.25934990279053
  C   3.67422456242728     -1.15457170332792      0.10138700569693
  C   3.07089230840937     -2.47691970749828      0.41105605067565
  O   3.35926738148221     -3.54667035314963     -0.52617415021964
  C   4.57917807249292     -3.97469200524498     -0.84007807797264
  O   4.68557676823154     -4.99045284543292     -1.47933958141682
  C   5.85244293697389     -3.20754143501080     -0.49024607496834
  C   5.89447034926867     -2.15589553147866      0.62114377826395
  C   5.07483373291893     -0.95228666240452      0.26245061471138
  C   5.60480444219274      0.27847677849360      0.04496825414725
  O   6.96808021315104      0.55760073213065      0.22601399466201
  C   7.83882620251112      0.11486069532049     -0.68545080669352
  O   7.60399771826802     -0.58742936441095     -1.62071958716741
  C   4.81388433072759      1.42510937061210     -0.34097855673001
  N   5.20443008681599      2.62850585649160     -0.57415680546727
  N   3.46328641095019      1.11536367018672     -0.45672667915939
  H   1.98915001341477     -2.38156873292207      0.37889092389513
  H   3.35629005006056     -2.83971677952110      1.40240820516283
  H   6.15709363392442     -2.72639899275174     -1.42370056421494
  H   6.58883821607113     -3.98734479467062     -0.29662054256989
  H   6.93659148777949     -1.88543834002130      0.78730048924645
  H   5.52509130465070     -2.57564357070130      1.56030976173038
  H   8.83843886221650      0.48822394248172     -0.42741761502827
  H   6.20620964862072      2.69806046634415     -0.42876629675911
  H   2.85804822062696      1.89754284795393     -0.67402649667137
