22
Coordinates from ORCA-job 10366optt
  Br  1.27048340232939      0.19982175045183     -0.23134451383667
  C   3.14385687870059      0.03261807314459     -0.10897665241369
  C   3.82335521728302     -1.14990276757705     -0.12019961632271
  C   3.19077458907305     -2.49338225433427     -0.28407899573526
  O   3.84208930246175     -3.49645653906362      0.51232028260675
  C   5.17911151775809     -3.52028079615183      0.59886537352373
  O   5.72381583478126     -4.37065823670432      1.24167100056150
  C   5.93724276373587     -2.42522603148020     -0.15545592436455
  C   6.07749604218520     -2.84551449443705     -1.55894985862355
  C   6.14369362099591     -3.18441712179267     -2.70690476180518
  C   5.21398549707239     -1.11006033860239     -0.03330755980839
  C   5.88100829479773      0.13537816404034      0.06323745830889
  C   7.27916607856710      0.22415301153499      0.15778789187519
  N   8.43265370567710      0.30320441010496      0.23360401862155
  C   5.12659121178137      1.36860270530477      0.07982590962370
  N   5.52457981984331      2.57108205469216      0.17605354484006
  O   3.74315190032359      1.24880416649608     -0.03162503988991
  H   3.22991781745533     -2.81815173174051     -1.32842821142869
  H   2.15545286535233     -2.49616070205159      0.04564035645176
  H   6.92930309124722     -2.37144050819083      0.29581963253135
  H   6.21193974147510     -3.46987346606336     -3.72823373290675
  H   6.53833080710319      2.58386065242000      0.25067939819087
