25
Coordinates from ORCA-job 10360optt
  Br  0.68122590737341      0.18597556393322      0.47389586850192
  C   2.89410550936146      0.03618752359309     -0.29888426154968
  C   3.45302036246193     -1.21182735223535     -0.13485294932676
  C   2.57429224544301     -2.39301304911960     -0.40269153855893
  O   3.15324539509389     -3.44617718763703     -1.21245790589794
  C   4.10542511863206     -4.22701957518335     -0.71776379014634
  O   4.48170765873122     -5.19106514241701     -1.33305064156776
  C   4.73738061740363     -3.81899176130314      0.59786530214480
  C   5.57436503666776     -2.55037774122258      0.41838980548261
  N   6.52411102030416     -2.44817012866683      1.51871997839915
  C   7.17751123540482     -1.24855036851395      1.69713020812879
  N   6.70492905815314     -0.11883587104572      1.34881250724797
  C   5.41884374281522     -0.13117754997824      0.79458807301395
  C   4.77429338136100      1.16631272042786      0.66384077312799
  N   5.21096003352384      2.30095403863024      1.01785225697649
  O   3.54393354540459      1.14695834720053      0.03104509086134
  C   4.76919052001203     -1.26651501322524      0.38887725426662
  H   1.71158744462234     -2.05946033573503     -0.96834266034911
  H   2.19948982965057     -2.84753576543162      0.51890748095766
  H   5.38455148554523     -4.64643079863491      0.88595416330222
  H   3.99753615470886     -3.66126683842457      1.38323002912993
  H   6.11270832861438     -2.63978820754846     -0.54039749948269
  H   7.07840209794439     -3.27422071868168      1.68014597813192
  H   8.12955341936633     -1.30362583827157      2.21820144435366
  H   6.12563085140052      2.15466104949105      1.43998503285217
