23
Coordinates from ORCA-job 10369optt
  Br  1.13245588548935      0.50817041440271     -0.05112464259570
  C   2.94755541063209      0.04755108279527     -0.58226277544467
  C   3.88055475407915      1.09219726742511     -0.69569385186091
  C   5.22203237221532      0.87127893224917     -0.44184064616512
  O   6.05726727400285      1.88615859494435     -0.88093259875102
  C   6.77019477498117      2.56272730043787      0.11692723879184
  O   6.11042571649204      3.73643832031595      0.49420484169929
  C   4.79519923779754      3.52810143066241      0.95809913822835
  C   3.70100234702309      3.62539902791894     -0.12000108045657
  C   3.75025812908104      4.91700473408058     -0.79845009894539
  C   3.80417485433293      5.99088146815414     -1.32563442422880
  C   3.46443661472475      2.45706141029596     -1.11899749425727
  O   2.81539271841078      2.67375873885785     -2.10721050337097
  N   5.83754438601939     -0.15772225152104      0.12381768532950
  C   5.20845178726461     -1.29202812768259      0.43688132177880
  O   5.65159854326863     -2.23770554260126      1.04822939741866
  S   3.46636881570855     -1.54804820136068     -0.18092079255616
  H   7.72461677312668      2.87645192141598     -0.29957691606143
  H   6.91202371278701      1.89386148286487      0.97168641115910
  H   4.60185805763684      4.32247953316494      1.68039333442242
  H   4.71106954848528      2.56548096560256      1.47369375638313
  H   2.75817948666422      3.58812185363649      0.44728356948734
  H   3.85333879977658      6.93337964394035     -1.81357087000441
