24
Coordinates from ORCA-job 10375optt
  Br  7.88285489567537     -3.06648244662352     -1.74273713252269
  C   7.39428426755335     -1.38901145207800     -2.56426794121099
  C   7.14283406653745     -1.50075061993307     -4.03433362546766
  C   6.01476060701221     -0.98084193043116     -4.53666533065456
  O   5.87208404727257      1.31901479895516     -2.09046231487201
  C   6.99265998548866      0.91635413379324     -2.22776236345141
  O   7.98536957430338      1.71718048104592     -2.61150720034075
  C   9.21815008302244      1.17092021427768     -3.03886965034977
  C   9.45921149709521      1.07585891275762     -4.34876501210950
  C   10.56578566204676      0.26839699420905     -4.89532888153111
  O   11.59959255760157      0.02073931570817     -4.24875869239743
  C   10.08492327773390     -0.45899138938211     -6.03336347449072
  C   10.37601534054719     -1.77714067541303     -6.27483256969925
  O   9.26467557256167     -2.60259719904440     -6.65187775084166
  C   8.20137758252090     -2.50580388894462     -5.86023773559244
  N   8.23832827492211     -1.96958551806937     -4.71286885995906
  N   7.36443038870393     -0.38434803352206     -1.83424048404612
  H   5.85954686041825     -0.93815728227022     -5.60678260867073
  H   5.26996384903554     -0.54625942502775     -3.88535950892558
  H   9.87513641369660      0.82705998406477     -2.25368047441571
  H   8.68673905493192      1.42401425587036     -5.02590999296915
  H   9.17361325726754     -0.08440322136815     -6.48902234126021
  H   11.16042795820117     -2.32832269598621     -5.77820043178899
  H   7.30223492585018     -2.92884331258831     -6.32016562243244
