27
Coordinates from ORCA-job 10370optt
  Br  1.17554389104582     -0.04857750314669      0.30812290681732
  C   3.07199851409999     -0.04740332557076      0.06536810075923
  C   3.68330204467124     -1.15288606339565     -0.52483442936099
  C   2.95341675530309     -2.30111920437040     -1.06541956828142
  O   2.38074716916787     -3.28935534930050     -0.09858345307069
  C   2.94899399365637     -3.64915247092792      1.04770928524845
  O   2.32689065209125     -4.31838916344157      1.83451004589498
  C   4.39866579284204     -3.28033395397183      1.29772909756546
  C   5.28376844769803     -3.60280184511547      0.08661550693319
  C   5.86411667823225     -2.36068785202573     -0.63926577486048
  C   6.13143495437954     -2.73220321418768     -2.05650977946124
  N   6.33317324054074     -3.04866038166836     -3.14096289396579
  N   5.11804366706341     -1.14362001019774     -0.50262833365188
  C   5.85944633494671      0.07226304299552     -0.42061672116633
  N   7.11335925792966      0.16932504180567     -0.75040085020671
  C   5.14231585974823      1.16906530788630      0.13051289292559
  C   3.78234466078323      1.07876740654264      0.43538402624350
  H   3.54380992872598     -2.87326928477050     -1.77983660194356
  H   2.03856800576020     -1.97912924019842     -1.55711289156363
  H   4.69935108432921     -3.86008386136547      2.16745867372673
  H   4.46794743648171     -2.22285805215263      1.55984027539402
  H   4.73268938208758     -4.22530236973480     -0.61656717769012
  H   6.13856950049566     -4.19946971371933      0.40449448371480
  H   6.84386249542689     -2.15608321270248     -0.20244753286309
  H   7.46202874473823     -0.64402066897833     -1.24466068906964
  H   5.69785536788852      2.08342749543765      0.27218037997957
  H   3.26675613986643      1.90755844627455      0.90092102195275
