23
Coordinates from ORCA-job 10374optt
  Br  1.01266905854436      0.29308491650609     -0.19521727060535
  C   2.81867925525003     -0.01620157620982      0.35515287602118
  C   3.48258707898486     -1.20894931712101      0.00473845366507
  C   3.08201318709509     -2.55456704494631     -0.19017991619862
  O   1.99705879967666     -3.12421130755681     -0.16303758647577
  C   4.39361506647541     -3.31109588083112     -0.48514931648205
  O   4.35578061672358     -3.84169042711144     -1.77266053936101
  C   5.45510162097443     -4.65627881440807     -2.08579797501494
  C   5.25446636140052     -5.08003819513207     -3.53698888746785
  C   6.28473439617361     -6.00802413241454     -3.99439591188942
  N   7.08963355409520     -6.74447951176092     -4.34614445639954
  O   5.44487915203352     -2.35703547652163     -0.37683496754490
  C   4.88589247518286     -1.13975915903652     -0.13398207987812
  C   5.61028249424913      0.00272099650151     -0.02428580656434
  C   4.90776551984039      1.22801763183790      0.24383502759367
  O   5.40321628002495      2.32401111947429      0.35535297995339
  O   3.53023681536542      1.15599192265514      0.39493827881916
  H   4.58915868078472     -4.10883890828370      0.24142067658450
  H   5.48450509817079     -5.53650375568185     -1.43202587531678
  H   6.39628607219489     -4.11005381561283     -1.97599024572062
  H   5.26074174142964     -4.19620601585446     -4.17576423294225
  H   4.27904371335587     -5.55713675755301     -3.64007714377017
  H   6.68065296197396      0.04424350906124     -0.14090608100520
