26
Coordinates from ORCA-job 10387optt
  Br  1.70874728998972     -1.36566574506646      1.72982507827598
  C   2.75864007597789      0.70686172766510      0.55580159275559
  C   3.32395736040166      1.89999090894655      0.81643695695596
  C   3.15561332182957      2.56246605156343      2.13831626420555
  O   1.80292487514561      3.07810617483899      2.28557996691302
  C   1.20138299532022      3.64164112648306      1.18532309921174
  O   0.58574848543451      2.62688582030615      0.38742531442987
  C   0.08025653685570      3.05536713357026     -0.85251541549471
  C   -0.04428367584148      1.82092936745664     -1.76389323143723
  O   1.18124135058749      1.46341097365119     -2.42393565693083
  C   2.23479802009869      1.49495395290951     -1.55773236362798
  N   2.33107460859729      0.43933843015631     -0.70941879271128
  N   2.96000945379282      2.54274270906210     -1.48208274813040
  C   3.73722018152593      2.72854715402262     -0.32988672541160
  O   4.59143539535517      3.59695616961795     -0.27347836880230
  C   -1.23672940385677      3.70267752130636     -0.70554088491990
  C   -2.30987024271912      4.22232501830950     -0.58488098267673
  H   3.85393875138275      3.39462891760714      2.24820375539916
  H   3.26477717138307      1.85913767156902      2.96051272262802
  H   1.90561634587727      4.20173235697801      0.55404500075649
  H   0.42119694570836      4.31423297005395      1.55538551735007
  H   0.77164959231745      3.76332807089948     -1.32857862742397
  H   -0.75386611295816      2.01575473564676     -2.56449884809224
  H   -0.39757312409053      0.98986808303763     -1.14612513691335
  H   1.77300627529633     -0.39579454374571     -0.84078666181688
  H   -3.26091247341151      4.68257724315437     -0.46650082449205
