27
Coordinates from ORCA-job 10383optt
  Br  1.07284170110394     -1.12950682257157     -2.03499407959092
  C   2.28442083509792     -0.11756726319518     -0.86654290181204
  C   1.71966528907476      0.79699632883301      0.03181680859119
  C   0.27193233183067      1.07778234644745      0.21621667949870
  O   -0.16271171452527      2.39741413403008     -0.20104319182249
  C   0.46301105336495      2.91949867247514     -1.31931707489932
  O   1.74754456955596      3.42619258706777     -1.05383947613812
  C   1.81049668594425      4.32140554183072      0.01888551838947
  C   1.72620988205659      3.76150101087078      1.43711514941134
  N   1.30121304099172      4.47208544362169      2.41453219919775
  N   2.25003499395061      2.53180311212740      1.69156959607993
  C   2.69891917839845      1.53605473328405      0.76881462088867
  C   4.02679333650226      1.28178539490466      0.62667322323672
  C   4.45804535883554      0.27620914291901     -0.28347130697992
  C   5.83459000426366     -0.03123476945823     -0.46486533597076
  O   6.77811268402911      0.50872213769732      0.13881629650408
  N   3.52666802432599     -0.39707365684837     -1.04538074506679
  H   0.00086186267115      1.05705108562376      1.27385269659774
  H   -0.32777186348064      0.33978941736768     -0.31463650811847
  H   0.60803013293026      2.17278806766509     -2.10445407194660
  H   -0.18536315400811      3.73267088198537     -1.66805219683920
  H   2.78447078267817      4.80935265569064     -0.06188329085208
  H   1.02909291444611      5.08702630698377     -0.06856257375714
  H   0.95765309825915      5.36593726537223      2.07739202262820
  H   2.26929097563043      2.30264445550736      2.67419146427752
  H   4.77131764268232      1.83906288463307      1.17958794639207
  H   6.02063035339001     -0.81739109486473     -1.21842146789952
