24
Coordinates from ORCA-job 10395optt
  Br  1.27940168658250      0.29622139225941      0.73822377803528
  C   3.09068559195599     -0.15796396065991      0.49020680538109
  C   3.56979024659706     -1.37703418695723      0.14190589448300
  C   2.69880177086631     -2.51867914705081     -0.16462646418393
  O   1.50168086704611     -2.59225817346812      0.01122112025487
  C   3.40903936172459     -3.67405930271783     -0.83970432018428
  O   4.71795839667338     -3.89330869433625     -0.37812174427165
  C   5.56861168569802     -2.80091708252104     -0.35469677858973
  N   6.81630850938443     -3.03589561378695     -0.60521576032650
  C   5.01080974521012     -1.53118763561005     -0.01173988992926
  C   5.80801584429180     -0.38288102514092      0.21651315189692
  N   7.20908773654535     -0.44444248247943      0.10202981719496
  C   8.10076523423901      0.00044314577293      1.04831419213419
  N   7.92333251939933      0.69520329538515      2.09986919929350
  C   5.22133584328145      0.90531787398989      0.39565666020660
  N   5.73771645630930      2.07170274937679      0.38718638978802
  O   3.83950758219862      0.93202133796385      0.66692955988896
  H   3.41517930301453     -3.46823669952721     -1.91955348049475
  H   2.83955784841056     -4.58296815389661     -0.65741910244313
  H   6.93099511489038     -4.02247669528800     -0.81684722563736
  H   7.51689104112925     -1.28073949069198     -0.39217762402380
  H   9.11928981836909     -0.29805071669638      0.79576951214765
  H   6.93856082000814      0.91724585092197      2.23777978947341
  H   6.73367697617456      1.99794341515875      0.20149651990594
