23
Coordinates from ORCA-job 10397optt
  Br  1.22150563155136     -0.25751809986334     -1.65080725075233
  C   2.94470915574563     -0.00078692130372     -0.88899675862903
  C   3.45975882520584      1.29112070469966     -0.55598723015475
  C   4.88949583738891      1.27096730413227     -0.45828350041197
  O   5.59568632976427      2.44278010630627     -0.43904381362326
  C   5.03936191663919      3.50734831632611     -1.14824328530687
  O   4.23857701329731      4.30465439473400     -0.33890368180647
  C   3.06673317646912      3.77919225693120      0.16514106229439
  N   2.36715071243061      4.51740432628853      0.91883045030940
  C   2.58458813645736      2.39002648544485     -0.19568553348988
  O   1.36231348280021      2.21096085375402     -0.06881632951871
  N   5.64364483862834      0.21616439787247     -0.38372710884608
  C   5.06186953856867     -1.00057644571997     -0.46444006177232
  C   6.01418904342282     -2.14998945193458     -0.23904988459664
  C   5.42401836473765     -3.47389901664944     -0.42060767678665
  N   4.97822243048509     -4.52128403951642     -0.55841953257897
  C   3.72993328229521     -1.13932031967075     -0.79108696720011
  H   4.47830613136264      3.13543624616029     -2.01055609656432
  H   5.86689071206846      4.14028609682238     -1.46100082357435
  H   2.84076349958865      5.41494606079254      1.02109428151222
  H   6.42177016712657     -2.10233233205719      0.77511721876761
  H   6.86662405155630     -2.06123313393240     -0.91820800370942
  H   3.30188772240971     -2.11334778961678     -0.98831947356150
