26
Coordinates from ORCA-job 10400optt
  Br  2.77076692584553      1.91326435409999      3.41970981058613
  C   3.02032713508636      1.48067446823319      1.56206403306567
  C   3.85981172077139      2.29133553570448      0.75367707557694
  C   3.75881649418540      3.75349977903186      0.81859185650049
  O   2.54591194472046      4.25680203132539      0.05067936513845
  C   1.37216264066070      3.64675443001076      0.25775041939757
  O   0.58412206615624      3.96779150626415      1.10947056747750
  C   1.04742515954383      2.59082617122696     -0.79016575815475
  N   -0.11566067784754      1.81888264933542     -0.41885581849750
  C   -0.33866085048071      0.46568059977169     -0.36192560000527
  N   0.30596636859677     -0.57972691643481     -0.69433491787071
  C   1.66252731735806     -0.54032305338355     -1.21529130089093
  C   2.66822449304105      0.00611608846058     -0.23488199199865
  O   3.79583390070712      0.50083646666190     -0.85452353583800
  C   4.32609735116852      1.75029662558121     -0.48522343096120
  O   5.09401436561767      2.25022597812387     -1.28040587755157
  C   2.39016392654276      0.35216139790052      1.06213710786499
  H   4.56956067815221      4.25684587391923      0.30283095716226
  H   3.63174962561836      4.13284292911273      1.83117669464148
  H   1.92311861417734      1.97420578403948     -0.93740847952758
  H   0.88538314207895      3.13304241192968     -1.72951774111651
  H   -0.75425682336552      2.35664094832129      0.14954334923680
  H   -1.32920572285868      0.28791195364815      0.06180435216207
  H   1.91897599592686     -1.55225600558192     -1.54182318962305
  H   1.73697546745755      0.09249277491291     -2.11257606995543
  H   1.59084874113924     -0.13982478221519      1.59849812318078
