22
Coordinates from ORCA-job 10405optt
  Br  3.43179275488737     -0.67432261257906     -2.83347550779072
  C   3.38754695307143      0.06203889223832     -1.09462688113531
  C   3.02430486674531      1.32759670123150     -0.88504682312062
  C   2.40778626350544      2.32943302993993     -1.80653550002808
  O   1.08809671519622      2.54465248262372     -1.27391898371419
  C   0.95499469161800      3.54018887074353     -0.37272214874712
  O   1.61522991632107      4.53861158486417     -0.37704681359259
  C   -0.13988226227422      3.23792504179093      0.64652184273464
  N   0.42442985441639      3.32198194745730      1.99512032779871
  C   1.11552900781612      2.35052749613247      2.39728386660138
  O   1.28036793746473      1.18122244855706      1.73245193681812
  C   2.62214902558855      0.90289369962567      1.38145921346516
  O   3.02415785149644      1.80545369521833      0.40158873163148
  C   3.04954495203522     -0.41634096818917      1.22484712101464
  Br  2.82823532567141     -1.62179756442491      2.67511188375545
  C   3.67316614785947     -0.88137030856707      0.04264788022623
  O   4.27612726637041     -1.94493227310342     -0.13778549243236
  H   2.29671132892492      1.93716013102733     -2.81221365308804
  H   2.95314046026188      3.27302141431615     -1.81246104555129
  H   -0.56882412600414      2.26079614265892      0.42853744117890
  H   -0.90482216372965      4.00875321564008      0.55326168261939
  H   1.62421723275756      2.39850693279815      3.35900092135619
