25
Coordinates from ORCA-job 10409optt
  Br  0.96543123872540      0.04585025342813      0.45083199971751
  C   2.85789710412970     -0.00932081504384      0.19238532755593
  C   3.53260023341812     -1.20588345038293      0.15484643982692
  C   2.92306913557271     -2.56389876772042      0.32257010048699
  O   3.24004090176076     -3.41611113873171     -0.75784964817775
  C   4.35979678070694     -4.23496967250656     -0.56831658618861
  O   4.22367552578157     -5.44760005712788     -0.72833783728057
  C   5.58344073440681     -3.60308202293099     -0.20174687478005
  N   6.71518050060038     -4.23891819405099      0.03184000945557
  N   5.73646641728873     -2.18379301787387     -0.17718636379525
  C   4.93663353568184     -1.11261592088673     -0.07052660545075
  N   5.57625505566417      0.07723888860010     -0.17163151466011
  C   4.86945230116378      1.18755251248190     -0.10278434333792
  N   5.53614429412833      2.41032250961782     -0.19986384019682
  C   6.86992631098209      2.67614244339894     -0.45782660274855
  N   7.84239010621523      1.89341184148169     -0.64529751304882
  C   3.48500586383376      1.22293036744202      0.06513532417840
  H   1.83843809585977     -2.48481441087090      0.37086084209640
  H   3.27283774801907     -3.01387996119074      1.25824529249459
  H   6.52422170921936     -5.23054010747666     -0.09234987029212
  H   6.71998312215657     -1.95020173862946     -0.22229302721606
  H   4.94451116088883      3.21820527013862     -0.11217348928183
  H   7.04318590795371      3.75390182958591     -0.49237648637612
  H   7.53251101114102      0.92440292109191     -0.58109118144863
  H   2.93290520470125      2.14967043815666      0.09793644846763
