21
Coordinates from ORCA-job 10415optt
  Br  1.15809868597870     -0.09673729082177     -0.33910892167971
  C   3.09560717382791     -0.17203623223695     -0.13190200097565
  C   3.73663885431168     -1.40157175962841     -0.08982320877589
  C   2.96881040073390     -2.67150876778659      0.08642959094722
  O   3.39532626387817     -3.78398564686716     -0.71436555361896
  C   4.61047707020734     -4.34012289528156     -0.37109069074676
  O   5.71868703336450     -3.63043513042722     -0.74327382282128
  C   6.11777427255025     -2.41329213344298     -0.09204724869786
  O   7.31032667209472     -2.34935628888809      0.14585291550821
  C   5.17096422181546     -1.35238970107368      0.03916548726696
  C   5.73655994399180     -0.06345311587027      0.27170450019514
  C   4.95431866208419      1.04911428113433      0.22502804957810
  N   3.61941901963458      1.02508607381424     -0.01865640577256
  C   4.66110665935950     -4.67983517857768      1.10187664035991
  N   4.71196544632261     -5.00915578166438      2.19761330365913
  C   4.67733696070692     -5.63635014366306     -1.10973359801442
  N   4.72338570965769     -6.64071535973646     -1.65521679386176
  H   1.92723431456433     -2.54048554085055     -0.17937747195793
  H   3.01857703167449     -2.98126868549792      1.13855622052552
  H   6.80104129768419      0.00758894483088      0.44224737840446
  H   5.38434430555696      2.03391035253532      0.37012163047814
