20
Coordinates from ORCA-job 10411optt
  Br  0.91030891930316      0.27754264420845      0.14457321236315
  C   2.78861312055240      0.06671848187243      0.05697903228745
  C   3.44612689006030     -1.15398697396477      0.03219698889438
  C   2.74760725131344     -2.44093539034377     -0.02493802255986
  O   1.52439048924135     -2.58668160648558     -0.09493945284358
  C   3.62775585767062     -3.59872096541129     -0.00075036064922
  O   2.99300886557244     -4.81502041156507      0.00162262226333
  C   3.61198701094078     -5.87061750131775     -0.57436527011217
  N   3.21133249166198     -7.05550040302240     -0.45484011010692
  N   4.91553099998144     -3.59774313951391      0.03968692251966
  N   5.49377219565029     -2.39181478448940      0.04006943329571
  C   4.88537990175027     -1.18243226216008      0.04565002623214
  C   5.70482184511572     -0.03778231750673      0.06719456655720
  Br  7.60161233246415     -0.25412625201035      0.09949602921581
  C   5.30072243765629      1.31155669916182      0.05729399066148
  O   6.00488530204179      2.30653628563815      0.05851584197503
  S   3.53220862876549      1.63195028029534      0.04645578289499
  H   4.48177788188440     -5.61215673069666     -1.17126873705068
  H   2.39393142089288     -7.08607315993568      0.15606058270215
  H   6.50022615748075     -2.41671249275271      0.06430692145995
