25
Coordinates from ORCA-job 10418optt
  Br  0.38770351345084      0.94327716860053     -1.07822413847012
  C   2.77243989860607      0.50533371310455     -0.28115170977970
  C   3.27382777178581     -0.74957554626099     -0.08851744862511
  C   2.41155297696518     -1.93950749848075      0.16153792289359
  O   2.80893060411589     -2.66815234317140      1.35506450294296
  C   3.60851538332626     -3.72235829207193      1.34494475969756
  O   3.77358305829327     -4.36430086912073      2.35006085471304
  C   4.32291023906486     -4.19014604231012      0.06565922854893
  O   4.86206133179388     -3.22706080691094     -0.80098550801358
  C   5.49726362314511     -2.12650495616215     -0.17077301705246
  C   6.75901969472869     -1.68120333739796     -0.92735511611584
  O   6.77926159829082     -0.25088841801834     -0.88513375821870
  C   5.47347475390689      0.12801356212552     -0.67412081932676
  C   4.66374344673591     -0.88167922810649     -0.27944537451668
  C   4.98137970289345      1.46414159141995     -0.88339747143008
  O   5.60977879924682      2.45726016484797     -1.22201281974245
  N   3.60080988820828      1.50985735594537     -0.64120647023211
  H   2.41576823973859     -2.63114685898834     -0.68306119863222
  H   1.39129043708787     -1.61359729158135      0.34585210705504
  H   3.60830446196856     -4.77342585967558     -0.52021840994526
  H   5.09797665905011     -4.86799557506369      0.43189136134629
  H   5.71810160621367     -2.37590243878173      0.87469178321940
  H   6.66575603627778     -2.01417102169365     -1.96609040088179
  H   7.68933706645258     -2.04934026472875     -0.50033076316472
  H   3.18120920865263      2.41507309248108     -0.81967809626922
