17
Coordinates from ORCA-job 1042opt
  C   0.93471442602495     -0.11291133261938     -0.12417862729189
  C   2.45151418901254     -0.03605121834385     -0.20547286338803
  C   2.95936135905534     -0.79323248619992     -1.43081520113264
  O   4.35817123767114     -0.90264570633823     -1.46184903781591
  N   2.84965688848577      1.36124817449695     -0.29157529165668
  N   4.26831460872744      1.47232000892398     -0.32079261138449
  C   4.65708175411834      2.75065533734343     -0.10265663247374
  H   0.56142033644035      0.47503761158973      0.71742934124951
  H   0.59969492853049     -1.14465806293769      0.00525293640287
  H   0.49104023039421      0.29051118406683     -1.03738087693918
  H   2.89830117940076     -0.52333079759050      0.67779189615614
  H   2.57756357321905     -0.26895996615617     -2.32152815404615
  H   2.53608825601599     -1.80543591832793     -1.42972887432976
  H   4.66102409972349     -0.02140228635033     -1.09146785630712
  H   2.52136439063315      1.84831870674560      0.55308241984791
  H   5.72360122166309      2.93353760042846     -0.18606339332117
  H   4.00108732088387      3.56899915126901     -0.41604717356968
