24
Coordinates from ORCA-job 10426optt
  Br  1.44905087478571      1.70715266947563     -2.45943246403378
  C   2.41359263003197      1.20868383710167     -0.92103619106077
  C   3.42466523432966      1.96233444546277     -0.43570331357759
  C   3.53064700478261      3.43938684939389     -0.71702767413058
  O   2.30617369587938      4.09710975710783     -0.47421376936308
  C   1.68955231622842      3.89841009245490      0.78855335332804
  O   1.13512187846134      2.63562310308235      0.97823213097767
  C   -0.10242632674175      2.38813144070842      0.34814477222755
  O   -0.87137901410109      3.32383075723924      0.14350751794375
  C   -0.37222476433915      1.01018657371557      0.03424003606862
  N   -1.54419132203626      0.56145423466718     -0.35435125334726
  N   0.64972083850597      0.02722298251513      0.21284683487594
  C   1.95992558218349      0.20854884152252      0.01103684266866
  N   2.82748573222301     -0.44011333980342      0.77639135425287
  C   4.04640978859483      0.09029777598737      0.99189068001648
  O   4.98305176654445     -0.42569237297520      1.58084347555941
  N   4.18358433282597      1.44055870384253      0.56614127990136
  H   3.76834546002412      3.62999921038000     -1.76349090664450
  H   4.32599327288885      3.86480390147317     -0.09044302200451
  H   0.91654336193116      4.66262632370922      0.83827348350265
  H   2.43382137396093      4.01805882910097      1.58279341074931
  H   -2.18206626795635      1.35584993131158     -0.35322451376960
  H   0.41433204402237     -0.75094522271129      0.81493640459205
  H   4.98627050697030      1.93748067523794      0.91809153126730
