26
Coordinates from ORCA-job 10424optt
  Br  2.35677702883717     -0.04931060002731     -3.48642638431287
  C   2.77909227333354      0.39303591609737     -1.63578518402920
  C   3.21869741640039      1.67114498610046     -1.33483446385441
  C   2.86591465488385      2.88765173305119     -2.13364911460057
  O   1.57062902946915      3.38535975651534     -1.69918640726538
  C   1.53213293394425      4.23692006783219     -0.62512473138864
  O   1.67142760935451      3.59135193001559      0.66155194618708
  C   0.73098752993561      2.73972861740639      1.07790047462093
  O   -0.38351801331149      2.68428848014016      0.63506660647288
  C   1.21106971845088      1.85973804065447      2.24306735025489
  N   2.61438654863939      1.44768444280045      2.24979947231977
  C   3.02023519222337      0.98455229488184      0.95425448568265
  C   2.57138982041959     -0.22817255077265      0.50860548690261
  N   2.57606858745116     -0.59744235915731     -0.79864124546579
  C   3.65830141166409      1.87194847360788      0.01869877302656
  C   4.46762835236251      2.95339049227049      0.44909859802083
  O   4.96124554364813      3.86434491862591     -0.24456069026819
  H   2.72722461803360      2.65347471586641     -3.18543913424885
  H   3.60988714622163      3.67325807168352     -2.00711695686697
  H   0.56521489314363      4.73802587011611     -0.64703063387903
  H   2.37076420124169      4.93693193742326     -0.62660448535149
  H   0.56742184659159      0.98150767670352      2.22491019752352
  H   0.99736475535280      2.40319849761732      3.16831351406935
  H   3.18602576308855      2.23203385677803      2.53053408964719
  H   2.13878919577806     -0.93469855927175      1.21016373074397
  H   4.68484194284229      2.96105329304108      1.53543470605918
