24
Coordinates from ORCA-job 10437optt
  Br  1.13878553487168     -0.44387916359086      0.69550694636187
  C   2.87987803169811     -0.14986793230746     -0.25339781194104
  C   3.56794757636628      1.05717992435854     -0.06934970441317
  C   4.97874714590430      1.03777651908293      0.01194969087149
  O   5.71771874904558     -0.13382906634636     -0.00584133218826
  C   5.07900492758740     -1.30787414770280     -0.10882233724688
  O   5.69671141281021     -2.34631973548636     -0.13187563499184
  N   3.70598323087445     -1.27356862987466     -0.21219354381049
  C   5.41838918970309      2.33174005788161      0.11226539074449
  N   4.33518199881415      3.17921534569257      0.10721222302460
  C   3.23962149022675      2.42848529877003     -0.00119360318040
  C   1.87049310567782      3.02322082012597      0.04228140420283
  C   1.93328016568708      4.56085957760423     -0.03502709841415
  C   2.60531817050609      5.13553925071816      1.19096700213399
  O   2.09278784362160      5.11325565220917      2.28040412330896
  C   0.94970235213195      2.57278551803461     -1.07297554204785
  O   1.29358965546779      2.20529306934178     -2.16034556407360
  H   3.30153992970826     -2.18323271092813     -0.36786614415025
  H   6.42885463357530      2.69952454897744      0.19355135377777
  H   1.36487050600148      2.76480917817367      0.98118581794643
  H   0.91812165382151      4.96796776633442     -0.07254298121197
  H   2.48268267088567      4.84576081480159     -0.93205060440623
  H   3.59293442563303      5.59566298032741      1.03760201478433
  H   -0.13114440061969      2.65849506380242     -0.82944406508063
