24
Coordinates from ORCA-job 10430optt
  Br  1.12197278530557     -0.05599960165909      0.17484494100295
  C   3.01509400156782      0.02407172984280      0.05874742872031
  C   3.70507994262664      1.20022119223802     -0.08673538633225
  C   3.07796324521669      2.55748681616269     -0.16526188460681
  O   3.80781980574455      3.47536976393802      0.60465341985089
  C   5.10996357416560      3.68082190273141      0.11384590601897
  O   5.59105056288264      4.79085053962894      0.22573967113215
  C   5.73254316374460      2.51882635138790     -0.47891436938895
  O   6.75525387608313      2.51554986187069     -1.16556972522648
  N   5.06052656130670      1.23302690165638     -0.17641280312138
  C   5.87154834777694      0.06473486029113      0.02378911582077
  O   7.07308868375489      0.12839558252501      0.19582402393772
  C   5.11263255602963     -1.14531492175772      0.02409702198726
  C   3.74971554437430     -1.17342727404965      0.08338836424688
  N   3.26810057047511     -2.46724948225694      0.25841222106974
  C   4.37225160200608     -3.37288471724482     -0.09930916289113
  C   5.63382231820821     -2.54314749897208      0.20498147470339
  H   2.06235426540608      2.53640468895673      0.22053456069292
  H   3.05647926879132      2.87746987693166     -1.21800108445608
  H   2.36278874944543     -2.65925575327784     -0.14629331578039
  H   4.33952593242903     -3.61462474252170     -1.16817934744655
  H   4.31330810801803     -4.29783469075837      0.47296553151637
  H   6.46647170249134     -2.78336256898194     -0.45478019020212
  H   5.97264483214960     -2.69912881668125      1.23463358875182
