20
Coordinates from ORCA-job 10446optt
  Br  0.97308545702762      0.14276383752273      0.02570536230147
  C   2.87718065115518      0.02725027351603      0.02583431769181
  C   3.47241445556651     -1.21198890686700      0.02539004979224
  C   3.01381887666201     -2.59940499618678      0.02473223329834
  O   1.91439960148969     -3.08168018654125      0.02437893823755
  C   4.37214424587085     -3.40804622891763      0.02459361166423
  O   4.42346072050283     -4.61028507267227      0.02423678085749
  N   5.42906135625598     -2.51619768895904      0.02512984765659
  C   4.89958114700717     -1.30127675003901      0.02556522151781
  C   5.63685693319830     -0.05881813631771      0.02614364683920
  C   7.01526508767811     -0.00896405322552      0.02632352000985
  C   7.72760944551559      1.24339185888942      0.02698013682709
  O   8.96871675509719      1.30669149811396      0.02687024056932
  C   6.90554469918481      2.45178529078571      0.02726019216701
  C   5.55648829922110      2.39812485977596      0.02704910208201
  C   4.85810022415140      1.14519908758029      0.02652544406143
  N   3.51505097186234      1.18283136053004      0.02636674983981
  H   7.58588835844864     -0.92936772951620      0.02602509116512
  H   7.43823414455651      3.39507104830924      0.02764153445921
  H   4.94609856954812      3.29292063421902      0.02724797896243
