23
Coordinates from ORCA-job 10443optt
  Br  1.12542839767281      0.43096132297878     -0.75636246807900
  C   2.94002473089374      0.19434283309919     -0.28323676163311
  C   3.46217478850908     -1.10823310031361     -0.13794001701576
  C   2.85001231794721     -2.45712010080609     -0.21828034572658
  O   3.77818983954692     -3.43856814407541     -0.76345964284664
  C   5.10993410546515     -3.41950876022777     -0.50756079329206
  O   5.80905669074939     -4.34273958144528     -0.85316506810178
  N   5.57769789738835     -2.32012745491366      0.14527184812273
  C   7.00820742625234     -1.96424865638233      0.16972790327459
  C   7.04887461829939     -0.41876391907882      0.37726676541590
  C   5.60527143775528     -0.04801972771271      0.23285609900975
  O   5.09873751614534      1.20910779812990      0.18484483395161
  C   3.71379221320825      1.37868775117890     -0.13254191345373
  O   3.35704744330438      2.53286577152809     -0.23715026509678
  C   4.83227015975242     -1.13014519520407      0.12199215045175
  C   2.51559404572967     -2.86969024845302      1.19813944533301
  O   1.39974931697991     -2.90281438682946      1.65559790678510
  H   1.95358094682139     -2.49430802062919     -0.83469419306483
  H   7.45808118654306     -2.26235696807252     -0.77809929870948
  H   7.51637708785281     -2.50433242496415      0.96659121121605
  H   7.68600911787684      0.06561903476247     -0.36763008472737
  H   7.45093685376832     -0.15868928740672      1.36201707881245
  H   3.40795186153777     -3.07791853516242      1.82181560937414
