22
Coordinates from ORCA-job 10442optt
  Br  1.70645150522274     -0.98053082088591      0.12985640169859
  C   3.38746090716665     -0.17346117781781     -0.10864502205932
  C   3.60263392650675      1.17169126698231     -0.06437150264427
  C   2.94556987624851      2.42914849469216      0.30442065155049
  O   1.74576853018258      2.64209837404042      0.55458116805744
  C   4.04246852436694      3.44373437345079      0.40365959606703
  O   4.04433087324734      4.58014560244408      0.82762620897856
  N   5.23834223903929      2.80864398761674     -0.11082424785895
  C   6.63700144454601      2.93605836701515      0.28509350213183
  C   7.27399897820884      1.54536347456215     -0.11841161300853
  C   6.04962040999123      0.66545901488642     -0.23178857045908
  C   4.97851571773267      1.47488425803700     -0.21127786261910
  C   5.81069763731007     -0.74942047672124     -0.27683728482379
  N   6.63860460795902     -1.74006959661380     -0.33261876051539
  N   4.44311512855148     -1.05479569556393     -0.25874876450473
  C   7.32675174956743      4.05472738140094     -0.37072258787304
  N   7.92098551039360      4.89063937555885     -0.88197212484516
  H   6.71102910101670      3.09245824814353      1.36723137677242
  H   7.98356144861144      1.21668370157127      0.64172531459469
  H   7.81731625786762      1.64237461772737     -1.06192371282518
  H   7.58908368459003     -1.38696938467135     -0.37301003605798
  H   4.24069194167286     -2.04186338585518     -0.30504212975653
