24
Coordinates from ORCA-job 10448optt
  Br  1.01803093531737     -0.11782942185184     -0.05432701853393
  C   2.92548104976995     -0.09425256263515     -0.05591215866749
  C   3.59692226426258     -1.32546521978603     -0.02534106209643
  C   3.17702226061732     -2.70133004883874      0.04894707943814
  O   2.04522283813947     -3.20199772197572      0.11265490886165
  C   4.45917965990263     -3.50820121789227      0.03952102539644
  O   4.61876258003995     -4.71276635848304      0.08176762589723
  N   5.49378869883243     -2.58339057538025     -0.03050715839205
  C   5.02230546150744     -1.28289630547144     -0.06963935903630
  C   5.72596788546733     -0.11644352716716     -0.14149423470801
  C   5.01532255484983      1.09978913740775     -0.15876507641132
  C   3.60160168989950      1.11412350381282     -0.10760548955731
  C   2.89759121922494      2.44452728148900     -0.16302362643886
  C   3.76922793207860      3.53694953972620      0.42807669955408
  N   5.07341502363666      3.51670441265096     -0.20678718502506
  C   5.79193695066651      2.34074713978015     -0.28257164053727
  O   7.00347897180790      2.37414612088772     -0.46328565942631
  H   6.46179518457432     -2.85174816253403     -0.05675728934920
  H   6.80689845389726     -0.09082839016112     -0.19031671031809
  H   1.95466215698710      2.39858246903587      0.37985569077721
  H   2.65959196148221      2.69228515210688     -1.20328993244272
  H   3.85500194359330      3.38188360497913      1.51176284213763
  H   3.31708977302898      4.51594849949482      0.26362166837877
  H   5.66970255041636      4.32246265080548     -0.09558393950079
