21
Coordinates from ORCA-job 10447optt
  Br  1.01630214770842      0.17609472281344     -0.12776842152592
  C   2.87228466839698     -0.05250085015282      0.01698718391613
  C   3.48801232994546     -1.25813670906057      0.06970607813441
  C   3.04318535969118     -2.64520317993390      0.06013501528071
  O   1.87387853888498     -3.07919571222542      0.00326593397044
  C   4.27493998439689     -3.45053936967679      0.13639574835041
  O   4.45890523808378     -4.65214657658790      0.21242988176362
  N   5.37563564708782     -2.52508450495636      0.10805775958397
  C   4.93098974340064     -1.23367847110113      0.13309724422202
  C   5.65883299187224     -0.08551084311760      0.12648602368242
  N   7.06495942082870     -0.11715426146643      0.02674874019288
  C   7.90641352267077      0.96549404479854      0.11908836000231
  N   9.17435906310338      0.94062987857746     -0.00767368377637
  S   7.16115924752073      2.51868947046062      0.49207966309787
  N   5.51872391965830      2.35929334076221      0.16710530541997
  C   4.97990432930707      1.17648940668286      0.12952552355394
  N   3.60556655559658      1.10807291382701      0.06583273895250
  H   6.28135217193904     -2.81918081487513      0.43583897096810
  H   7.45389563981851     -0.92953087064932     -0.43089897982281
  H   9.51351193043180     -0.01281432297505     -0.13418745896876
  H   3.12818754965666      1.99691270885630      0.06174837300215
