25
Coordinates from ORCA-job 10453optt
  Br  1.05492379531923     -0.08748449286951      0.17277940491511
  C   2.95062093444552     -0.01397043130674      0.11691018667624
  C   3.72768446659096     -1.14981764445948      0.48278409040583
  C   3.22358285662578     -2.53423925744281      0.56931648483290
  O   3.56283417032036     -3.35375231757986     -0.60406294846743
  C   4.81535164711688     -3.71242181212309     -0.87699590583580
  O   5.04063505990933     -4.44010362574452     -1.82045602166572
  N   5.84985189958227     -3.29878909001341     -0.06692266304251
  C   5.95540109428569     -2.20003124204014      0.90049268099962
  C   5.14100575903038     -0.99703630055178      0.54049158961045
  C   5.69386057510693      0.19575512254829      0.22133701903934
  N   4.93102414426680      1.26008866565797     -0.21884300702446
  C   3.50103687056824      1.24938000994171     -0.17953767341277
  O   2.92887798881556      2.31483291207876     -0.41574005519416
  O   7.05928841094531      0.45147064880273      0.22253161722828
  C   7.75573690983905     -0.06787783750534     -0.82091746519969
  N   9.01039029486632     -0.07507290784426     -0.89142023612929
  H   2.13920122462878     -2.56853789670948      0.58881391585761
  H   3.60666592277485     -3.07484467414782      1.43884458641919
  H   6.72019650801781     -3.62859881933767     -0.44996168656257
  H   7.01167296445426     -1.94116286516320      0.95675517007467
  H   5.66436064254110     -2.55304248567259      1.89362679093920
  H   5.32912083882779      2.18657139157316     -0.18916529669926
  H   7.12508547569902     -0.50051525443103     -1.59728632940394
  H   9.40958954542164      0.36520020434013     -0.06137424836084
