23
Coordinates from ORCA-job 10458optt
  Br  0.88445144712355      0.21116320485787     -1.07845417473420
  C   3.00058066760553      0.03859843921300      0.08382012668489
  C   3.59965228027057     -1.20917053301791      0.06607228081584
  C   2.85624756829302     -2.49692672666171      0.24350177277899
  O   3.51782541570917     -3.59605143737042     -0.40989925601580
  C   4.85242465093316     -3.70612065030973     -0.42726772305783
  O   5.37885799093732     -4.75319396412051     -0.70252745278591
  N   5.57590491377852     -2.56927811167350     -0.12705975874878
  C   7.01539893817553     -2.67235644257535     -0.18604112990819
  C   7.56539754448797     -2.51412297739421     -1.54438528499435
  N   8.03362539173891     -2.40718433744468     -2.58427416114670
  C   4.97925583462270     -1.28279072704683     -0.08775977024751
  N   5.78670950246896     -0.24762588746013     -0.19569234030896
  C   5.19504661484336      0.96022500124947     -0.16616655186606
  C   3.83444018921696      1.15125572120866     -0.05382527273048
  C   2.77544040234413     -2.82919418136334      1.72156115947412
  O   1.80457631868262     -2.67721865611571      2.40337417378824
  H   1.85743718925267     -2.42168747694086     -0.18350519800552
  H   7.30672780877224     -3.65464778251429      0.17908547768517
  H   7.43925572364486     -1.88716833221064      0.43598660473538
  H   5.86820847492223      1.80844484004008     -0.24277277583308
  H   3.42219287362813      2.15249643724111     -0.07705283862155
  H   3.72734225854773     -3.21344541959033      2.14828209304228
