28
Coordinates from ORCA-job 10457optt
  Br  1.43896689010962      1.93975501653723     -3.17287843048447
  C   2.15053686124288      1.50358204882917     -1.42674617311914
  C   3.28359535101364      2.20331228691610     -0.98519689423416
  C   3.23282836765313      3.69025196899089     -0.94734035357924
  O   2.38503409173097      4.11311331748686      0.17433298031638
  C   1.05753781997998      3.92796064500733     -0.01976477943763
  O   0.42884504353899      4.44186075293385     -0.91718957249796
  N   0.53040463275634      3.14653858783139      0.96166720065072
  C   -0.85643751824993      2.73570776372380      0.96657943652298
  C   -1.07892593326176      1.27010547602939      0.58266967731157
  C   -0.77215301510460      0.94271506991991     -0.88749960103879
  O   0.29836355211324      0.01403489200219     -1.06361511604923
  C   1.53005935639198      0.50596672500526     -0.68207792816863
  C   2.04297474608136     -0.00577454084554      0.50664493676725
  C   3.34031142325256      0.25794726892553      1.04080804837224
  N   3.90865942127458     -0.27688203799917      2.06767951053912
  S   4.35448016565455      1.44157273040935      0.17255336072011
  H   2.81356454418361      4.10747693545161     -1.86363816586611
  H   4.19644712010803      4.14477006725921     -0.73017700576196
  H   1.20512762669601      2.57249260513647      1.45011787376353
  H   -1.37646514232898      3.39276563896330      0.26889715248685
  H   -1.27544204858809      2.90926473890645      1.96233060683360
  H   -0.46582287488039      0.63176806766590      1.22203353486090
  H   -2.12185581304648      1.02597038027447      0.80287094291179
  H   -1.62641124741914      0.45698505289067     -1.35881510887558
  H   -0.56525441150780      1.86455939320549     -1.43573605324992
  H   1.43883072862488     -0.73862843657226      1.02911612314780
  H   3.29520026198081     -0.99719241488490      2.44837379715797
