19
Coordinates from ORCA-job 10466optt
  Br  1.30368336889041      0.32239721598788      0.32031313890839
  C   2.94628465059458     -0.28648375818405     -0.56308844566521
  C   3.62865962752984     -1.44678687484079     -0.18146161267954
  C   3.09743857017397     -2.74466433606004      0.01199877655629
  O   1.71728475792527     -2.85619254933727      0.19782447956903
  C   0.94982486273391     -2.93102788809103     -0.89638364330351
  O   1.32840802402976     -2.97899463390948     -2.02447388441139
  N   3.75974519319666     -3.83638440193374      0.07011641092658
  C   5.14374122503373     -3.83846699186721     -0.11420528522839
  N   5.81238048506410     -4.93708064264718     -0.20351031271591
  C   5.79735411875072     -2.53665383092387     -0.17069761228793
  Br  7.67345811920139     -2.57096956627469     -0.37329910779732
  C   5.06350086423380     -1.38299564585953     -0.14856795215230
  C   5.51264422411132      0.00213720693085      0.05825421500096
  Br  6.99041549632611      0.40207505640361      1.18634301380873
  N   4.87084680380982      1.04362573600041     -0.27635049342834
  O   3.68580553962021      0.74693244365011     -1.02697634202761
  H   -0.10229010593375     -2.94790628529909     -0.58807703677105
  H   5.14981417470809     -5.70556025374484     -0.12175830630148
