23
Coordinates from ORCA-job 10464optt
  Br  1.82056569773771      1.90040816387509      2.59128881135186
  C   2.30701157746745      1.46717729024119      0.78264203956773
  C   3.35770254983147      2.19151166602736      0.17132946582052
  C   3.43238975792290      3.66703406733226      0.41700998646452
  O   2.09015336141659      4.26671745351140      0.35784895403591
  C   1.27549231346984      3.70250032097074     -0.56270429214913
  O   1.54003117576359      3.56654166493083     -1.72734194041477
  N   0.08918416824375      3.30342482899761      0.01152613407668
  C   -0.64343958426314      2.21308334931590     -0.60412645733077
  C   -0.81278358551642      0.99873974386063      0.31699224165927
  O   -1.88743296645214      0.70572183936043      0.76172223432623
  O   0.24272880457778      0.21201424063022      0.60584901505944
  C   1.52672114742709      0.50397441174158      0.12094422785080
  C   1.94328214143412     -0.12409521658713     -1.00533418564040
  S   3.56338943708753      0.06090084932262     -1.60432947290670
  C   4.06962965803234      1.70886118225810     -0.95363028973761
  O   4.98777755085919      2.24889115614002     -1.55051414666864
  H   4.07480051252198      4.12437355978905     -0.33320381236694
  H   3.76427466206036      3.94048094893064      1.41844218072835
  H   0.11351354162155      3.32318284856804      1.02123636266700
  H   -0.10257489138243      1.92766037680527     -1.50786985436943
  H   -1.65776095530898      2.50899026799053     -0.86684724998945
  H   1.26534392544783     -0.73509501401241     -1.58592995203446
