20
Coordinates from ORCA-job 10467optt
  Br  1.09995042401553      0.26660505277168     -0.17828340816574
  C   2.98533131618259      0.08232753431746     -0.04772293891905
  C   3.65910522297672     -1.16050548382207      0.00897267588524
  C   3.17307386415411     -2.48751007142610      0.06544751203575
  O   1.79117230758168     -2.68058180575666      0.18233605474405
  C   1.10555110373407     -2.94836952099291     -0.93349439014479
  O   1.53685176935272     -2.98058902134271     -2.04321228619741
  N   3.87427359652822     -3.55794453803736      0.09309201740975
  C   5.27116148568703     -3.44231012531431      0.05006933109867
  N   6.02287933800388     -4.47992985106251      0.01861997307964
  N   5.85906845625687     -2.18000617123899      0.05651232068231
  C   5.10152791157825     -1.15351408294885      0.03449170697369
  O   5.77314010034445      0.04021827106132      0.04308268138342
  C   5.08113892360697      1.21909574114411      0.02012917900167
  C   3.70482916655993      1.26217305175084     -0.03797734033698
  C   5.88658505681693      2.37590822445677      0.05729646288504
  N   6.51621952555554      3.34401132041367      0.08743344072392
  H   0.05670249258216     -3.13059620157219     -0.66801820903320
  H   5.41143694346393     -5.29341196074053      0.02193567560241
  H   3.21500099501839      2.22292963833936     -0.07671045870840
