23
Coordinates from ORCA-job 10465optt
  Br  0.90496830262663      0.21008528477985     -0.16273135012839
  C   2.77716940233847      0.08169720778463     -0.00636142484692
  C   3.42112943053657     -1.16110719514761      0.12239573442945
  C   2.76338640895246     -2.46879963724475      0.35190837899704
  O   3.39188357160599     -3.51394145270489     -0.41509538422914
  C   4.72588604538439     -3.60660477603831     -0.45555278641876
  O   5.24419313053407     -4.63085874246337     -0.81342583747407
  N   5.45053806728821     -2.47605489440602     -0.06445883118277
  C   6.81250291965723     -2.70040722999618      0.24582892429626
  N   7.68879144152385     -1.86838438048849      0.59903235063284
  C   4.82003520721261     -1.19222461825956     -0.00608409459324
  N   5.57717537079346     -0.14410718777673     -0.15123932355082
  N   4.92439519953123      1.05975892536057      0.02528420685881
  C   3.54110623830736      1.27987029731153     -0.11985540303451
  N   3.04427808848352      2.45986839015619     -0.28577625325806
  C   2.88941680382204     -2.79072200113097      1.82754732118504
  O   1.98791652433198     -2.68808451730546      2.61808941061797
  H   1.71439861854977     -2.46519477175714      0.06782137303756
  H   7.04955246088044     -3.75589909482916      0.16532797097526
  H   7.31175095443182     -0.92155678228308      0.58026883873923
  H   5.50278119066892      1.82981077302928     -0.26729181346209
  H   3.78658032938300      3.15510237005994     -0.33088199709825
  H   3.91416429315588     -3.06924596665026      2.14724998950758
