29
Coordinates from ORCA-job 10463optt
  Br  2.42532057566561      1.22620628846197      3.92969525993227
  C   2.64338785203135      1.10663263063443      2.02174450544376
  C   3.30226184560588      2.15300189090817      1.33356287420532
  C   3.13014919295035      3.56189991188056      1.74523388723059
  O   1.73638852483883      4.06223015331500      1.55704721565808
  C   1.17092210435289      3.92834488386540      0.33151588779055
  O   1.00608410320583      4.86307113177742     -0.41983586357420
  N   0.72071827105562      2.66783538726080      0.07379784682039
  C   0.37805489977974      2.25245657175368     -1.26954165915114
  C   -0.17672710199663      0.81973449848302     -1.32511299673749
  O   0.71789659077522     -0.14626911444023     -1.85151480540228
  C   1.44362949151852     -0.93581315580909     -0.89199173884683
  C   2.27423152718810     -0.12607790655157      0.02347507561488
  N   3.22068301151564      0.70389507372828     -0.59370168861176
  C   3.61304272939266      1.94374752941611     -0.06213300157119
  N   4.17561356372180      2.84920940683755     -0.79487744355116
  C   2.08090000883252      0.00637558731718      1.38562868185554
  H   3.77869016337859      4.21303560839287      1.16413254480354
  H   3.27764651325631      3.71761350127236      2.81071747600010
  H   0.99007318928825      1.95477808677691      0.73574590524324
  H   1.25302109455256      2.31314476900288     -1.92883260993640
  H   -0.36161681545240      2.95299769567941     -1.66014369486460
  H   -0.52067249624374      0.51817559912556     -0.32888130724268
  H   -1.03909645052408      0.80483784021674     -1.99412728932323
  H   2.04158429254532     -1.59726711437178     -1.52989616087262
  H   0.75051911387850     -1.54937684031019     -0.30560051992652
  H   3.22544716405599      0.67341356222966     -1.60262881890439
  H   4.25357475180795      2.53696882187152     -1.76040453127462
  H   1.45927228902276     -0.69980229872468      1.92092696919285
