19
Coordinates from ORCA-job 10489optt
  Br  1.42228479690870      0.47299946843240      1.34349407743600
  C   3.04736805963402      0.16631800857117      0.45498127388920
  C   3.50413215669631     -1.05509252318218      0.06047272033788
  C   4.91752652540082     -1.22748746544153     -0.24302721951200
  O   5.67562620504151     -0.14321102952608     -0.69514632506774
  C   5.44501234368560      1.14898136649823     -0.46270054497214
  O   6.22412047666077      1.98380018937887     -0.81676215826422
  S   3.98766363544553      1.64071995433211      0.40485489941758
  N   5.57504963931271     -2.30769300022983     -0.19473714705766
  C   4.92968796918340     -3.51757415638948      0.14485759819614
  O   5.60310949009649     -4.52793674061674      0.35625118378427
  C   3.50064627424256     -3.49006819135581      0.14618690625954
  C   2.78063121057792     -2.30994620165667      0.04760663006994
  C   1.35860135100286     -2.34826704322490     -0.27221521061077
  O   0.73071395174262     -1.43818929729962     -0.79295053724057
  C   0.65730655260238     -3.60879490671196      0.01073326782605
  C   0.03931863950273     -4.60885584155948      0.24951435318365
  H   2.99058476913218     -4.44288469216963      0.16801854894584
  H   -0.50138404686917     -5.49881789784885      0.46356768337901
