24
Coordinates from ORCA-job 10482optt
  Br  7.70437677323100      1.76705112280352      1.36969442007384
  C   5.83015406491060      2.03397538464204      1.01220871971895
  C   4.96229224694976      2.20900532891699      2.06977066422994
  C   5.22551445707176      2.18282866865289      3.52673876902097
  O   4.73121240534914      3.45378053147491      4.05090151743231
  C   3.48571318173153      3.43877690032806      4.53840503507617
  O   3.06482610944034      2.64919610153052      5.33105337677263
  O   2.77105149246450      4.50129519703524      4.12067526909687
  C   2.45552684473157      4.63568893174080      2.71967928766494
  C   3.47834473444800      4.14118553212089      1.71428233904770
  N   3.63726261545359      2.67462763829300      1.76034613599922
  S   2.92785941326676      1.84524427561010      0.47888631258925
  O   2.79852222522487      0.48573339579913      0.93331627555566
  O   1.70916159294605      2.54303677823590      0.12929474802403
  C   4.11025875544716      2.04377518567894     -0.73083276175690
  C   5.44767180357198      2.03604629794568     -0.33399274665477
  H   6.28466111948896      2.12987123327404      3.76159391331315
  H   4.68498476582283      1.39198538536036      4.05174300345169
  H   2.28826711738442      5.70311917812914      2.57531134394665
  H   1.52019605503954      4.09920938675694      2.54777166916569
  H   4.45235832089080      4.60194018490920      1.86778228179527
  H   3.10789908258043      4.44142252248369      0.72972972525164
  H   3.77065012594153      2.08629708057434     -1.75271716731849
  H   6.22123469661269      2.05890775770355     -1.08964213149648
