23
Coordinates from ORCA-job 10487optt
  Br  1.22786619700962     -0.07719939679951     -0.90658473434341
  C   2.95603414077766      0.05340071874585      0.15753839015280
  C   3.66306680904005     -1.14527945267551      0.38542318983671
  C   2.93334314231481     -2.33141444343988      0.89328422241099
  O   3.37095764130629     -2.63610972508815      2.23950305826743
  C   2.46688844289664     -3.15198021690703      3.07334429796642
  O   1.32081885726957     -3.38513873434876      2.83564302895422
  O   3.01267990173727     -3.54421729312256      0.16160678073105
  C   4.13737215619302     -4.16308520583840     -0.25599686432657
  O   4.03006594744456     -5.29853208051493     -0.62949446294122
  C   5.47941237742981     -3.45854592163408     -0.35597815479201
  C   5.83842101245205     -2.31785104536036      0.59451566792553
  C   5.03807878116623     -1.08809571963216      0.27111160008784
  N   5.72479110034293     -0.03406092259470     -0.17293792284694
  C   5.05345903379302      1.09641163572732     -0.46998665490524
  O   5.50334091482430      2.11100354405893     -0.93016406188482
  O   3.65434863495245      1.14255010856460     -0.18008261640986
  H   1.86769348141019     -2.12616112942687      0.92613704916356
  H   2.93957556172879     -3.32481813527583      4.04960668535625
  H   5.52308440280625     -3.08085234945485     -1.38257290196994
  H   6.20880533684014     -4.26466549237123     -0.28871030528591
  H   6.89057681536517     -2.07315307304628      0.45968790963810
  H   5.68331931089903     -2.61920566956553      1.63110679921500
