25
Coordinates from ORCA-job 10499optt
  Br  0.98182776343718      0.01599372429176      0.04974990823330
  C   2.86186804985209      0.00374509992938     -0.14197639973618
  C   3.59749639827277     -1.20633195104084     -0.26507468718799
  C   2.98610768267498     -2.47567681787571     -0.58670847277910
  O   1.86366555189389     -2.67492585291565     -1.01254529222105
  N   3.84954404830961     -3.62212620221465     -0.35047760389376
  C   5.08266604370274     -3.48585299020522      0.39766939811389
  C   5.69347338824023     -4.87560896730486      0.23242900616531
  O   4.62923777162815     -5.70403398526016     -0.19910334278422
  C   3.57542721081641     -4.92913279477684     -0.65698514912323
  O   2.64888752612405     -5.43567400536329     -1.21076247650349
  C   5.87910312165989     -2.34576287585307     -0.19876039472860
  C   5.03998895327401     -1.10285317127619     -0.13466580426609
  C   5.62127543167331      0.09999190131366     -0.00088617692228
  N   4.87979327858103      1.26485733042091     -0.02917731147212
  C   3.47419855306453      1.29041944204584      0.00254498119041
  N   2.82863887733430      2.40530812514189      0.14794980684463
  H   4.85747623786260     -3.26368500515431      1.44729884153895
  H   6.10024615716764     -5.27592881984450      1.16019635428744
  H   6.47702496861259     -4.86979333035481     -0.53186618465302
  H   6.10643838393967     -2.61395547026918     -1.23729393163821
  H   6.82508158742287     -2.20292265729041      0.33003516212494
  H   6.69244233004172      0.22014944464758      0.09626864610766
  H   5.33490902523050      2.13205773148549      0.19499231838832
  H   3.48418165918312      3.18074209772321      0.22314880491449
