26
Coordinates from ORCA-job 10496optt
  Br  1.12148964136397      0.12209584230832      0.17502693352013
  C   2.99772127947213     -0.02897643936138     -0.01207012304146
  C   3.64959679327298     -1.27994104508779     -0.20271731090145
  C   3.01163016657622     -2.48702879493602     -0.67580475957709
  O   1.84566397194927     -2.61965340720853     -1.05100897791973
  N   3.87873718586945     -3.58863463802434     -0.77516489493232
  C   3.38081584478589     -4.89699954462740     -1.12386471934375
  C   4.67811558790150     -5.68387631006501     -1.31922311714829
  C   5.65008298283758     -5.08032499068862     -0.28384316280144
  C   5.01644909091729     -3.73792543416034      0.11108447584698
  C   5.88841026521269     -2.50447920337745     -0.00650129294267
  O   7.10509160050215     -2.56650241442912      0.00260564227257
  C   5.10236519645638     -1.26946729929278     -0.07173662488990
  C   5.76953187086509     -0.09688490841096      0.05932010197519
  N   5.10774746793594      1.07985971240471      0.08034132646057
  C   3.68693406224400      1.19827713062279      0.13804921910653
  O   3.24171398866842      2.33408057768310      0.30856079362784
  H   2.75237611967166     -4.84041235154164     -2.00969700316812
  H   2.77528595809359     -5.32771543939439     -0.31127037979919
  H   5.05236598716067     -5.50910568323169     -2.32858211258300
  H   4.54165955160787     -6.75769794110223     -1.19066284735715
  H   6.64949137711060     -4.92006122798690     -0.68675134319902
  H   5.74956234802666     -5.72401410622464      0.58982495188674
  H   4.68480261057099     -3.76625627891344      1.16524520506199
  H   6.84664602180624     -0.07839424827709      0.16076381858443
  H   5.58871302912060      1.95203844332294      0.22807620126161
