24
Coordinates from ORCA-job 10491optt
  Br  1.53179352450043      0.65055427670408     -0.02773229193279
  C   3.33466820234796      0.09282111675910      0.08567874658521
  C   3.81495750430097     -1.18106809086075     -0.06369751928899
  C   2.95129339354971     -2.27654120324918     -0.54132883275212
  O   1.82762869055115     -2.04335306619808     -1.03761124203746
  C   3.36289921866324     -3.68196546184801     -0.43641540545006
  O   2.66136410249792     -4.63170857127545     -0.74064161318361
  S   5.00509420514063     -4.13130335588834      0.17623531395117
  C   5.80592570242914     -2.61118291272471      0.37441644527339
  C   5.23980127871037     -1.39592700883728      0.25234859563737
  C   6.06498873841656     -0.19389551051112      0.43540394245960
  N   7.47273233533540     -0.35879456518049      0.59886619818117
  C   8.17140392938327     -0.68371304190554     -0.62527522436110
  C   8.66609849387506      0.51535721226413     -1.39199874099568
  O   8.64016822794734      1.64167701127026     -0.97536188474248
  C   5.50021924955229      1.02099845310860      0.49297905777178
  N   4.13418778306066      1.17103784115272      0.45778782617909
  H   6.84862484988984     -2.68826092882504      0.65181584020746
  H   7.87106856733720      0.48409313885843      0.99570196478960
  H   7.52785714745740     -1.28259550024011     -1.27536980007503
  H   9.05960875210441     -1.30393837616769     -0.43337257065910
  H   9.11627732212696      0.29588290101045     -2.38115311012617
  H   6.08369785625985      1.92607504668951      0.59882716238602
  H   3.75164092456214      2.08675059589452      0.29689714218275
