18
Coordinates from ORCA-job 10503optt
  Br  1.01567662684608     -0.00167241907859      0.32603404231367
  C   2.90747980916346     -0.06818937433727      0.15957036469395
  C   3.64839646323316     -1.20783791577409      0.01335487441906
  C   2.94930220054888     -2.51717339114018     -0.12000357962070
  O   1.78187370247444     -2.69700069742693     -0.31712621478079
  N   3.80840346812647     -3.64189116143243     -0.00252029831163
  N   3.35459878511059     -4.91101552269377      0.01944842759520
  N   4.38314440428786     -5.67377806580159      0.11845939692419
  C   5.51992736577457     -4.92019792310165      0.15232128387981
  C   5.16144873630524     -3.60303529308545      0.07681646705993
  C   5.91141139376897     -2.34170635089701      0.04351881121653
  O   7.14038497951527     -2.37982178292010      0.06609387643217
  C   5.11589253294689     -1.12578026998575     -0.00368434747986
  N   5.83778634226483     -0.00188494663862     -0.04888104600053
  C   5.38657435102863      1.23167805292571     -0.00420745977155
  O   5.98285960702792      2.27976996817961     -0.08811938761170
  S   3.55304627157723      1.51356204785858      0.27182250055353
  H   6.50179295999946     -5.35102495465047      0.22710228848870
