21
Coordinates from ORCA-job 10504optt
  Br  1.20138125296156     -0.52651451189013      0.03974037134607
  C   3.05135391103360     -0.17024621980277      0.03980279805511
  C   3.59200006173576      1.12722587650769      0.03991750946164
  C   5.00554444946810      1.18474372895387      0.03993319167664
  O   5.82093742583709      0.10622692042094      0.03982897325199
  N   5.26386087060063     -1.17271107360919      0.03973561966441
  C   3.95186629730970     -1.23391662817651      0.03973072502724
  C   5.41777870734775      2.51664331317253      0.04008333108041
  C   6.69945865818717      3.13764542186931      0.04016539156924
  N   6.84258091308277      4.41898094301907      0.04036420391995
  N   5.70113572872774      5.15681631925208      0.04048721269841
  C   4.36841701359438      4.74438406858638      0.04041012288401
  N   3.37352686014679      5.55669390065825      0.04048354184074
  C   4.23901652839262      3.30533606911131      0.04019427965977
  C   3.11029119438076      2.46652095503209      0.04001105106949
  C   1.74737673768787      2.85570388720647      0.04005277682420
  N   0.62862815906260      3.12890204711273      0.04008566852082
  H   3.58546011198658     -2.25370029446853      0.03964542131326
  H   7.61302509389617      2.55612954867889      0.04009360278313
  H   5.87173096890359      6.14800073719588      0.04061786149195
  H   3.68762905565674      6.52613499116962      0.04061634586152
