20
Coordinates from ORCA-job 10515optt
  Br  1.81040472948189     -0.27139056922289     -2.37545436055451
  C   3.00501608360439     -0.31024863178586     -0.87753635357209
  C   3.31193487513837      0.87972637927143     -0.18443054755035
  C   4.51214747689709      1.02762684024606      0.52131421421869
  O   4.50096329088155      2.22275441719739      1.14861822864911
  N   3.32418428391624      2.88397007848085      0.87382948306950
  C   2.63377210566145      2.09609875845774      0.09317109893981
  C   1.24428317119636      2.51137952812936     -0.28539123827247
  O   0.27200569646018      1.85296237335183      0.52340919372888
  C   0.16169080903568      2.65310374730642      1.66299440987644
  O   0.29248701623259      3.99816841446750      1.21230392748589
  C   0.97950879236685      3.98168587236909      0.04618126361423
  O   1.24372139332828      4.95653134294112     -0.57924714171892
  N   5.57973164715105      0.26455752947234      0.67480715244307
  C   5.61216261323443     -0.95318012663178      0.13540777758939
  O   6.50021951199994     -1.76946787572607      0.19359817815936
  S   4.14650435609749     -1.60883780192040     -0.84395471864835
  H   1.02437970794541      2.29976770339664     -1.32776491157517
  H   0.96125036577454      2.45066076815219      2.38167670975042
  H   -0.82436792640383      2.52013125204701      2.10146763436707
