18
Coordinates from ORCA-job 10514optt
  Br  1.47010805328725     -0.58939272898791     -1.50739550038231
  C   2.91754453802095     -0.45476675909319     -0.20385385036325
  C   3.40706272942427      0.88211257033698      0.04756436920745
  C   4.75499138181052      1.10544055712315      0.10115637210637
  O   5.03488259847255      2.39005554699599      0.05885344088323
  N   3.83325541916484      3.12372620188373      0.02930887122542
  C   2.84556760862527      2.21589621515873      0.02842092059021
  C   1.48839088572301      2.59245003992594      0.12141249352049
  C   1.03781966356027      3.92175826462760     -0.05249866361380
  N   -0.21949958639322      4.22159431042568      0.02440422085568
  N   -1.11628077429765      3.22689800670957      0.29844263794775
  N   -0.68387148703463      2.01420565037471      0.56031469335090
  N   0.55748374951362      1.66115207346705      0.49968234234006
  N   5.83089638035722      0.26540453765754      0.11348285617260
  C   6.03181248475277     -0.91508309318419      0.26993595301699
  O   6.41118726806130     -1.99940176399984      0.40536082541727
  O   3.42467255595728     -1.45998548781575      0.19551738092850
  H   1.73597653099432      4.72693585839420     -0.26010936320356
