22
Coordinates from ORCA-job 10512optt
  Br  3.86419923226068      2.93715544212864      1.59527569808310
  C   4.87777924019587      1.95187886494610      0.33850273184246
  C   6.25708193620204      2.13405715387429      0.10823824006840
  C   6.87481779463011      1.02783073854031     -0.60885885347369
  O   6.08250981665565      0.22617735855995     -1.38521037329241
  N   4.70058183982538      0.15470049486625     -1.24536400813387
  C   4.18556351421849      0.96041874641522     -0.36094418682719
  N   8.09754254330322      0.65992503268285     -0.61827459929316
  C   9.02282894167093      1.34670825793230      0.15999362417666
  N   9.70310325074059      0.83019493231539      1.09628346308341
  N   9.28540030552683      2.67519461009905     -0.22825969583597
  C   8.36989295004796      3.54115324965159     -0.11085987069135
  C   8.69817462551306      4.96965820100092     -0.51945274771925
  C   9.18682367245725      5.78272659745504      0.59100114505967
  C   9.61256926198993      6.45655703847702      1.48503014408856
  C   6.96246465449330      3.35159538837721      0.40342277130963
  O   6.43661576577265      4.33864024769151      0.92770007576986
  H   3.11820517305381      0.83802320828362     -0.22628402956747
  H   9.39826666838646     -0.13489208542336      1.21215182098799
  H   7.80698384654280      5.44383534054368     -0.93262637340825
  H   9.47353972540698      4.91310745529082     -1.28406721500166
  H   9.97705524110584      7.04135372629155      2.29360223877454
