25
Coordinates from ORCA-job 10525optt
  Br  1.02329130830337      0.39421214633524     -0.14532778439027
  C   2.90411117080884      0.17041220289463     -0.27781092046103
  C   3.76145287416854      1.28201157918199     -0.18960533498256
  C   3.46499859425552      2.67549558349631      0.14879420195382
  O   2.40845565712117      3.26858739556129      0.25816484635919
  N   4.70448297738009      3.31502483405400      0.38236165388228
  C   5.78863246280315      2.53829349366563     -0.18457457843169
  C   7.11234546301749      2.49351471558339      0.55667011312238
  C   7.99870729337702      1.46085273696386     -0.14903850582197
  C   7.40053686564359      0.05123366406191     -0.08164979724355
  C   7.67816422333383     -0.58221712766560      1.27491139456707
  O   8.49742060288955     -0.17764543323874      2.05832606379024
  C   5.90559384624667      0.03362474913920     -0.30956805663904
  S   5.12468211133388     -1.51590879323482     -0.53696672347787
  C   3.30801857197253     -1.16983465144009     -0.46042566894757
  O   2.63036761011490     -2.17747132800806     -0.57065603238901
  C   5.17196977241220      1.16439243379088     -0.25794230167408
  H   4.68067164603818      4.31060488245976      0.21773252826434
  H   5.99209262733054      2.87531370836433     -1.21337635755925
  H   6.93931355384021      2.20703795844087      1.59663908219692
  H   7.60003934469646      3.47160480301817      0.55477717990852
  H   8.99125274691744      1.43872304086987      0.30009687918112
  H   8.11172420904187      1.74777357643132     -1.19799836234562
  H   7.89759003412694     -0.59831615958225     -0.81825611419690
  H   7.05208443282596     -1.45932001114310      1.51772259533455
