24
Coordinates from ORCA-job 10528optt
  Br  1.14226470021498      0.14480229101376     -0.99649358136795
  C   2.80772849528305      0.13837312169659     -0.08733643846445
  C   3.59074678635037      1.26184374624406      0.03115894446009
  C   3.44725588048214      2.65666502595391     -0.48842977061970
  O   2.46634200754677      3.23313967776770     -0.90165888214200
  N   4.72585027069580      3.21501353544737     -0.46570185876886
  C   5.68391023585296      2.41205159403198      0.26540307869640
  C   6.07336788350506      3.03689110564426      1.60588775363948
  C   6.74588879214306      4.37242283252598      1.52648731482481
  O   6.92552980000211      5.00624571585255      0.51944008248988
  C   6.92928494410352      1.84784053879217     -0.46133907907872
  N   7.09620506683801      0.53103796552006      0.19929126892764
  C   5.75739566640652      0.04543577865424      0.37657151839005
  C   4.91154397517140      1.14100781270740      0.43712685734141
  C   5.31647688819296     -1.26779513155926      0.22076523069274
  O   5.95621365643955     -2.29193749966843     -0.00128526839657
  S   3.44809189484616     -1.42653436894803      0.37519369208166
  H   4.82809252927378      4.21226975916589     -0.56918402932390
  H   6.73619446072996      2.35140806664379      2.14657015198149
  H   5.18384475597005      3.15626782980099      2.23628846263526
  H   7.08509137807612      4.78603442036909      2.49884095828542
  H   7.82258265083154      2.46328270847908     -0.34482727364910
  H   6.68315618531700      1.75071153441224     -1.52504147491226
  H   7.66594109572702     -0.12447806054741     -0.32072765772283
