23
Coordinates from ORCA-job 10524optt
  Br  1.11477213319440     -0.25613642375191     -0.06431975465902
  C   2.99127184634045      0.00114359244521     -0.04952291047528
  C   3.62242887729760      1.30035811495124     -0.04705112883326
  C   2.88708827467844      2.56432984118606     -0.04600398053638
  O   1.66359971126369      2.67931545969709     -0.04482956841769
  N   3.66022132749467      3.71422275540079     -0.04614355172134
  C   5.02775018813957      3.73666267015120     -0.04598187204329
  C   5.93364272976897      4.80579582097742     -0.04669620342824
  C   7.24863773670790      4.23240375520870     -0.04598892273610
  C   7.14429277083911      2.86063339932850     -0.04475006508335
  C   5.74799530525723      2.53309156177393     -0.04480896101272
  C   5.02822277509708      1.32701902618614     -0.04477189577887
  N   5.73706384184520      0.15017370879564     -0.04253657104713
  C   5.12888190873791     -1.09685059574517     -0.04162983341250
  C   3.76469309477276     -1.16075869337295     -0.04584908182287
  C   5.58870491963094      6.17102157652641     -0.04812789295817
  N   5.28254486040685      7.28537766154709     -0.05001633150610
  H   3.13227363724082      4.57481290823218     -0.04563111879652
  H   8.16197290595431      4.80805718497233     -0.04665664515420
  H   7.97487682348982      2.16939382040132     -0.04449408358465
  H   6.73892479919646      0.22450069056093     -0.04006250090043
  H   5.77590406235328     -1.95904230465725     -0.03836497087813
  H   3.28223547029247     -2.12752553081497     -0.04676215521374
