26
Coordinates from ORCA-job 10534optt
  Br  1.07012791918465     -0.04411057309364      0.49379560804241
  C   2.95890529546059      0.04394994980230      0.25772601913304
  C   3.60451293967884      1.30615521865415      0.11318678321813
  C   3.13986172601361      2.64968174815115      0.06723254191779
  O   2.03248112558086      3.16376119583211      0.23266003023488
  N   4.28644338582405      3.46406183146608     -0.25952567917653
  C   5.51213193902942      2.69500028366165     -0.08528332637070
  C   6.17777649420112      3.01579586488438      1.26072893332504
  O   6.62818690981696      4.36657215544905      1.28454863963512
  C   7.56728656440048      4.56239059796551      0.28928644571017
  O   7.06382841043254      4.31482343018703     -1.01043945351731
  C   6.48140036747830      3.07218240738110     -1.19330687129558
  N   6.70233910657945      2.39977110072743     -2.22905336073914
  C   5.02115571284574      1.26838424629737     -0.06539112452509
  C   5.74655441103585      0.11459511256519     -0.09278307441236
  C   5.07579207827953     -1.12434021487216      0.05676502689274
  C   3.68098571523990     -1.12368828568302      0.23452878480123
  H   4.27097541043382      4.37865469523236      0.17265817586397
  H   7.02647811042727      2.34033028184101      1.43111320913625
  H   5.44503690083385      2.89392942281062      2.05640516191038
  H   8.43217366825617      3.90180710404793      0.45473246911089
  H   7.87021456304168      5.60647866242137      0.30528959678838
  H   7.35406293278825      2.90820124117097     -2.82802599327858
  H   6.81856918971288      0.14530576098295     -0.25426701654118
  H   5.61732203918533     -2.05926806043104      0.02204526581143
  H   3.15439708423876     -2.06342517745186      0.34937320832462
