20
Coordinates from ORCA-job 10535optt
  Br  1.02635789772763      0.20049982166022     -0.20186288413209
  C   2.89435585737628      0.04936377088562      0.06389427054364
  C   3.66737638462773      1.20996498746159      0.19536443894008
  C   3.49632399027109      2.55476629323219     -0.36657102668522
  O   2.51058497503180      3.16635375131893     -0.71234207454327
  N   4.81600598171031      3.10193973610011     -0.55355849580107
  C   5.79076911580269      2.34596687535410      0.18318384059822
  C   6.10997090646254      3.01026978653903      1.51964266523614
  O   7.18625307603553      3.05366245187095      2.04027217282970
  C   7.09556680831788      1.77881180486139     -0.41909197683543
  O   7.98629304070234      2.33495204272374     -0.96840007552939
  O   7.13681849135582      0.43100128576371     -0.11753696358612
  C   5.86347749471743      0.03894280386835      0.31809490319966
  S   5.24653481288754     -1.56576726631451      0.12748200332136
  C   3.41168699325525     -1.27875656283950      0.09797095722047
  N   2.71252465096079     -2.35404865284827      0.04724621774044
  C   5.04602492251425      1.08597321315665      0.45050956644977
  H   4.86976443172459      4.11086426300001     -0.57928007979727
  H   5.20216742647703      3.44454688475541      1.98583822585291
  H   3.29014274204141     -3.19030729054979      0.05014431497747
