21
Coordinates from ORCA-job 10533optt
  Br  1.10227988608191     -0.30176054148323      0.05898652634621
  C   2.94717838978645      0.08088133229435      0.05791065762236
  C   3.50790936001268      1.30998989722150      0.05885878149932
  C   2.79157374454568      2.63309740119834      0.05985876760536
  O   1.56125640274225      2.63776273667151      0.06052393836725
  N   3.54170201329378      3.75603340750048      0.05952940853716
  C   4.88101280205242      3.69270249784863      0.05890808799990
  C   5.63970823531182      4.98858459576978      0.05890950559472
  O   5.08686841380589      6.07929636771242      0.05917118655668
  C   7.08729177043781      4.85969362334777      0.05858100539367
  C   7.71079274988504      3.65405443021714      0.05825861227271
  N   7.00993105723438      2.50757035910031      0.05810040850278
  C   5.63021771377661      2.51473066039514      0.05836035949177
  C   4.96186039953776      1.26338574003409      0.05831491641881
  N   5.67254808004160      0.14671813356277      0.05911743638694
  N   5.12879062987176     -1.03955267732418      0.05882320193780
  N   3.71785649194680     -1.02848168704609      0.05518116665321
  H   7.66635938800581      5.77234109739379      0.05863856881849
  H   8.78834869912729      3.55135056244502      0.05807520792072
  H   7.45013103017385      1.60015078571104      0.05817454424566
  H   3.30138274232835     -1.94254872257060      0.05871771182848
