20
Coordinates from ORCA-job 10541optt
  Br  1.08241241611491     -0.25075534529987      0.09673886324383
  C   2.97079468421454     -0.02412068647902      0.09072949218369
  C   3.57795496365556      1.27667865766250      0.08935509759228
  C   2.90191052085092      2.57896018696378      0.08968166739344
  O   1.68684970616378      2.70182621974287      0.08935870332013
  N   3.71149748524614      3.71843467700921      0.09023530103070
  C   4.98556681338942      3.58100917233378      0.08944956796824
  O   5.68179832156152      4.78733532227328      0.09039081716649
  C   7.01514340889510      4.74979194819500      0.08995829961881
  N   7.78077469953377      3.74244192481659      0.08838439206602
  C   7.19067123866486      2.45215639305750      0.08700481008418
  N   7.94064828107230      1.40802726117373      0.08507043917067
  C   5.75306977678990      2.40239700540875      0.08779962126520
  C   4.97674302959304      1.21630508599856      0.08766012858678
  N   5.57543308007982      0.00944511961501      0.08616442870503
  N   4.93873609284445     -1.20999593235367      0.08597999206938
  N   3.62140825865582     -1.15100957038187      0.08889112405232
  H   7.42568714279899      5.75492074860259      0.09125250117649
  H   8.91387674024803      1.70127922290628      0.08493883829077
  H   6.59302333962709     -0.01312741124500      0.08495591501554
