25
Coordinates from ORCA-job 10559optt
  Br  1.20155143119383     -0.19983550114221      0.02920935640844
  C   3.09902630047256     -0.04064182931253      0.06601974892112
  C   3.71544050685337      1.20346356311563      0.09124305693828
  C   3.24677428541528      2.56934583073590      0.11239114866757
  O   2.11722719964435      3.06486311546731      0.11261528573453
  N   4.42440916670104      3.31552450145990      0.13752394888874
  C   5.57478768907897      2.52251916419239      0.13571068911525
  C   5.15552531767117      1.23456549296176      0.10803539613426
  N   5.87408487935189      0.01537282050672      0.09050968523143
  C   7.23440116410754      0.01639611504840      0.07762231874958
  O   7.93192213722055      1.02108245173567      0.08993424868253
  C   5.09585218344305     -1.17732455003172      0.08618301346767
  C   5.82470212672147     -2.48469678743859      0.09531043463436
  C   4.85361034389725     -3.66568046853112      0.12234355340608
  C   5.56082585142501     -4.94389160074123      0.12846249970326
  C   6.15967394155950     -5.98330554994250      0.13275055157223
  N   3.78112394821541     -1.17187903142880      0.06872869698086
  H   4.40770767440094      4.31863951331659      0.15952041842921
  H   6.56435397547977      2.93455029987936      0.15112175566264
  H   7.67419574238516     -0.98508311568305      0.05169914733136
  H   6.49204954971215     -2.55365282325535      0.96382477432445
  H   6.47391037096383     -2.58010579952923     -0.78473702158640
  H   4.18768281862874     -3.61240646702577     -0.73925021936401
  H   4.21050414464838     -3.59184471032037      0.99978345885616
  H   6.68865725080866     -6.90497463403717      0.13644405311041
