20
Coordinates from ORCA-job 10551optt
  Br  1.16770584639842      0.06243426564078      0.36066810863806
  C   3.03942966513631     -0.05276200194716      0.15741811577748
  C   3.69124826496986     -1.20777764918436      0.07129676793480
  C   3.24899841282900     -2.65171882058656      0.06494699200810
  O   2.10782593466584     -3.05003590484254      0.16677743535862
  N   4.38930496384950     -3.42857237635828     -0.09160399860543
  C   5.43748782467178     -2.60918964866703     -0.15793216005339
  C   5.12684700256029     -1.23141997580909     -0.06246884034376
  C   5.87951214573830     -0.05283199555573     -0.01841597946712
  C   7.31611821943371     -0.03707381050074     -0.09605062034013
  O   8.00626552551653     -1.03719630462008     -0.24825246262328
  C   5.16212410892504      1.18926802316380      0.16901987713702
  N   5.74726419936089      2.33013627584082      0.27033756042233
  O   4.85918533014379      3.39455219278265      0.57401863892359
  N   3.72603985937316      3.45166643833202     -0.25358207548992
  C   3.17842310351010      2.31866710008186     -0.37178332321417
  N   3.73211185248732      1.16169822274819      0.17354862543024
  H   6.44108190524952     -2.99283762856742     -0.27004646976563
  H   7.78447377523984      0.95581914124279     -0.00914999096968
  H   2.27555205994075      2.22917445680609     -0.95874620075772
