25
Coordinates from ORCA-job 10565optt
  Br  1.66132113684035      0.05560572511505     -2.25746705071955
  C   3.14239240057425      0.12130281519650     -1.06801625239595
  C   3.55152353457791      1.34231624786917     -0.51705093468025
  C   2.99227662836383      2.67335321405914     -0.64046365661314
  O   2.02327437481986      3.11869498151089     -1.26398728653599
  N   3.81078863484657      3.46580739709744      0.16357071051986
  C   4.81571651948987      2.72486990019795      0.78170301312973
  C   4.67925405042265      1.43808963522345      0.38165099651314
  S   5.72577783669850      0.10007325604507      0.82074725210304
  C   4.87658783677054     -1.22838410025796      0.03200911307390
  C   3.77402867912607     -1.09000119338501     -0.78157916623461
  N   5.43720497890203     -2.50179634249647      0.29337366246842
  C   5.23740081478244     -3.10397563090261      1.60562830426330
  C   6.35209122467078     -2.89488756609073      2.54103883769840
  C   7.28107993649831     -2.73905814591518      3.28123306826378
  C   6.41429637635677     -3.04073284636523     -0.51798038799550
  N   6.86699449199937     -2.60065934185022     -1.61607084928448
  H   3.63398114433771      4.44619087846705      0.28268974034131
  H   5.54512621317989      3.17852824924138      1.43070791132613
  H   3.38673194843681     -2.00076889245371     -1.22217372503714
  H   5.07799471307552     -4.18005128916850      1.49215637028643
  H   4.32526497153431     -2.67947611051305      2.02368924712775
  H   8.10355881696725     -2.57303260478485      3.93372198936333
  H   6.80341287482453     -3.98400589921995     -0.12771421778994
  H   6.42391986190373     -1.70900233661959     -1.84841668919197
