22
Coordinates from ORCA-job 10569optt
  Br  1.12150195563628      0.23229197647236      0.00024649632118
  C   3.01308436859718      0.12780939831286      0.07465206663752
  C   3.79763722637269      1.29092861080311      0.01106919061038
  C   3.43122213186184      2.70135653983147     -0.09382417508673
  O   2.33301272129376      3.25494273738722     -0.14152358775656
  N   4.64421604562164      3.36508170423309     -0.13163111133573
  C   5.73117402025145      2.48261253572659     -0.06310019836966
  C   7.08257020621219      2.89874137735270     -0.10886680620097
  N   8.13474311523823      2.17037479343301     -0.03081696300513
  C   9.27344282450210      3.05635747415164     -0.23397345772437
  C   8.67773860276868      4.46680785287370     -0.10640199624036
  O   7.27751196846669      4.25548351793977     -0.27613832417510
  C   5.21658539359249      1.21028943115561      0.02995609939911
  S   6.06310069828858     -0.30025349317774      0.15718442699199
  N   4.85792617134787     -1.45274939651857      0.23373015855129
  C   3.57716447268077     -1.14352741652914      0.17986999668635
  H   4.72069897021758      4.36273733176588     -0.21615320175072
  H   9.71048173874506      2.88914322471637     -1.22545034703878
  H   10.05550208289419      2.87311872200522      0.50509324525569
  H   9.01899665690694      5.16946945721168     -0.86550590578446
  H   8.84683008040011      4.89569393032217      0.88530880289532
  H   2.90185854810356     -1.99371030946903      0.22627559111973
