20
Coordinates from ORCA-job 10566optt
  Br  1.05826996173429      0.26277823579013      0.05465814508644
  C   2.91648971631900     -0.00847133414090      0.05666721167674
  C   3.56721684846560     -1.25467632383061      0.05662232613623
  C   2.90467715061546     -2.56061540623252      0.05574702179521
  O   1.68145207532071     -2.68854224714547      0.05533608109135
  N   3.73385524931890     -3.67830442372077      0.05555799743098
  C   5.03350209366376     -3.54998460414708      0.05633883804236
  C   5.71800976776876     -2.32524738977100      0.05737384876177
  C   4.97501189831134     -1.17529123133716      0.05752912145854
  C   5.64932043343047      0.12351600112739      0.05868406665992
  C   7.04647303488436      0.08652163715334      0.05952734175415
  C   7.72485298771589     -1.12126656095195      0.05923081241866
  O   7.09539023288598     -2.34480408965233      0.05817090915787
  C   9.12986595193623     -1.20874646216520      0.05991065595420
  N   10.28633507020537     -1.25789002871206      0.06060317433223
  N   4.95716109000687      1.26398228766702      0.05888387525881
  N   3.62826800859888      1.12526852607659      0.05779764882786
  H   5.62819797943849     -4.46269216022378      0.05615323907671
  H   7.61973443173972      1.00233531741415      0.06038300321773
  H   3.12691601763987      2.00013025680222      0.05782468186226
