22
Coordinates from ORCA-job 10572optt
  Br  1.02703495495250      0.43333598529270      0.01656645957695
  C   2.84905357745315      0.04725467743831      0.01993815280366
  C   3.47612776858542     -1.18721736696994      0.02098957136814
  C   2.74195590070321     -2.49182099288093      0.02032771535655
  O   1.51089339016022     -2.51143400266197      0.01900584082755
  N   3.47828227059998     -3.64583435448589      0.02121037174130
  C   4.79824249965084     -3.60086240016264      0.02292840503805
  C   5.57119695932703     -2.44107474516563      0.02394644945563
  C   4.88653022435278     -1.23984721784089      0.02293567350245
  N   5.55797242615917      0.00539156766893      0.02384323475261
  C   6.91258346754002      0.26633036337882      0.02604726937132
  C   7.08785297239284      1.61799007117314      0.02603286848390
  C   5.79297404271007      2.23017810846843      0.02398167646395
  C   5.48274093260541      3.61029201045640      0.02303340883816
  C   5.23090962528454      4.78602251103574      0.02293115248338
  C   4.89151702446549      1.18476572971032      0.02262476440107
  O   3.55560603158695      1.24722983114167      0.02048927978880
  H   5.30872697526853     -4.56213794459985      0.02363123253057
  H   6.64970642567305     -2.49221216269783      0.02545117949021
  H   7.62577443333805     -0.53670464095308      0.02746722182731
  H   8.02765871579735      2.14354805503819      0.02747831558822
  H   4.99565938139336      5.82180691761602      0.02213975631021
