26
Coordinates from ORCA-job 10584optt
  Br  2.23004383781645     -2.45840256049701     -2.76444773057404
  C   3.43052623561238     -1.81876289775978     -1.40751460147458
  C   2.88175443698343     -1.34427919354068     -0.17780556263959
  C   3.76261638378845     -0.53742005764997      0.62444787224881
  O   3.54114836734221      0.07569123940862      1.65420187417615
  N   5.11098007411733     -0.60083208617571      0.16299248346345
  C   5.54990414252339     -1.50070776398203     -0.79081313770202
  C   6.89073539985364     -2.13639363302502     -0.62823694625237
  C   6.78747597440841     -3.37253514276108      0.29961140536800
  C   5.92515970014773     -4.51764984325018     -0.27550082104545
  C   4.68238472916767     -4.85573609891881      0.53936174402496
  O   3.90016738683455     -3.67817231765162      0.68367271405042
  C   2.55687817620689     -3.71675411077222      0.50442875253725
  O   1.92471046594819     -4.72888594842382      0.41241739133391
  C   2.02680744698623     -2.24714098211458      0.57562998272598
  O   1.11410380616975     -2.02486677855312      1.34117565251589
  N   4.71830303057091     -1.98442423648605     -1.67683781846059
  H   5.76846245853869     -0.24603461873325      0.84134031211706
  H   7.61779671199692     -1.43256697111566     -0.21062785008422
  H   7.24623339866257     -2.44863723991456     -1.61169427778395
  H   6.37319820820057     -3.04548379526414      1.25746252571036
  H   7.79906185803409     -3.73475783951795      0.50216823801625
  H   6.52003951385561     -5.43252132094708     -0.34769585767410
  H   5.60268096052500     -4.25800082131601     -1.28516170780731
  H   4.08714859999215     -5.62973634228323      0.05358782003171
  H   4.95267869571668     -5.20498863875497      1.54083754317804
