24
Coordinates from ORCA-job 10582opt
  Br  1.08443976303025     -0.12641183762943      1.16116410460667
  C   2.65072213548729     -0.13112790790773     -0.00262052780915
  C   3.51025577039635     -1.24208089256569     -0.00049787251963
  C   3.15013546911616     -2.63132916463632      0.08804462758628
  O   2.07249493222001     -3.22451795708665      0.17889498131933
  N   4.38582721689960     -3.31910970169430      0.04711213159812
  C   4.43880182888767     -4.75195553769432      0.08374530702604
  C   4.92582956171860     -5.35799849016807     -1.16444796621182
  C   5.34207731861684     -5.84813989936030     -2.17628753023543
  C   5.44948007123967     -2.43625802039295     -0.08430046890377
  C   6.86234496016652     -2.90432547203426     -0.16848697550093
  C   7.34890784168887     -3.54506627791296      1.06478974186663
  N   7.72238291890161     -4.05953630527096      2.01961353039133
  C   4.94808649473519     -1.16697758930413     -0.10938119287118
  C   5.65829173985528      0.08707327075429     -0.17166639402423
  C   5.02209302235704      1.26413711860232     -0.22006986546306
  S   3.28881521470934      1.48093477457877     -0.24947730354376
  H   3.40888731535870     -5.07147213723385      0.26515733323570
  H   5.05966681045826     -5.10628550233549      0.91302673059068
  H   5.69502578623793     -6.27574044993602     -3.08300087456014
  H   7.50759545489870     -2.05004050946355     -0.37488752332934
  H   7.00570413346734     -3.62783575390644     -0.97876126185196
  H   6.74338159956553      0.08723556320696     -0.16734634013780
  H   5.56575263998677      2.19982867939135     -0.26931639125858
