28
Coordinates from ORCA-job 10586optt
  Br  1.05132278511730     -0.30273810829551      0.39330397199092
  C   2.89658362356037     -0.12814885313814     -0.05901079247951
  C   3.68206076826063     -1.29059909541338     -0.27481972837445
  C   3.07944708710308     -2.56764469206329     -0.65340244993006
  O   1.96262641730209     -2.73124513881478     -1.12706725368225
  N   3.88493915223761     -3.70886137175742     -0.48601861673685
  C   5.04248593388558     -3.64275991994187      0.37405717896153
  C   5.91656098373494     -2.51425904693934     -0.14591150607334
  C   6.42281073956038     -2.79414420787823     -1.57046438839342
  N   7.12542469792517     -4.05802160840870     -1.72075811657630
  C   8.39593372008773     -4.23722605254784     -1.26986330096556
  N   9.05036738092713     -5.31741373910169     -1.09664687821051
  C   5.12015314344052     -1.22409520172725     -0.14395672142008
  C   5.81329213364209     -0.06963222797033     -0.08025990173801
  S   5.10428034131652      1.50770571776027     -0.25482992813293
  C   3.35749794721232      1.21099038834613      0.05499707383772
  N   2.62545453130932      2.24228711576483      0.31811378407194
  H   3.31663028402306     -4.54163098532866     -0.45982944632223
  H   5.57369751769965     -4.59686518318841      0.34400138695388
  H   4.77914176835477     -3.43323099793223      1.41895075799691
  H   6.78423773220380     -2.40103589099500      0.51102780711555
  H   7.09340283221543     -1.98666363035088     -1.86870960952605
  H   5.57909904389150     -2.78870360970079     -2.25888932503661
  H   6.55331594057116     -4.88225314494502     -1.82825256415225
  H   8.90161012626715     -3.29107164129672     -1.06630943750370
  H   8.47303233650222     -6.13274017474057     -1.30740151076538
  H   6.88756018230982     -0.06618717693885      0.05988007665864
  H   3.19603084933846      3.08218847754375      0.37306943843241
