24
Coordinates from ORCA-job 10593optt
  Br  1.21148445776438      0.01678594439906      0.82554916715929
  C   3.01768204944340     -0.07244711220512      0.21289992131967
  C   3.71099488354787     -1.31886373858917      0.13848746135275
  C   3.02951275169845     -2.63113609006318      0.16430270565922
  O   1.81776647140996     -2.74371218514801     -0.01479485203967
  N   3.80779388659380     -3.75145902251495      0.38435112858652
  C   5.11262068163049     -3.66573221943156      0.33141341382586
  C   5.84241613537631     -2.49777363418829      0.06897646587445
  N   7.25998430316099     -2.47365507758264     -0.09017217442182
  C   7.95536038084297     -3.71728866103434     -0.03921819867629
  C   7.93877120678099     -4.54453991538263     -1.28255712154985
  C   9.19644091462869     -3.83382707324867     -0.86868733999203
  C   5.11095597978085     -1.32416534141457     -0.01877301725945
  S   6.05322753633154      0.14428342187819     -0.30889266824787
  C   4.77256530836257      1.33668604507194     -0.31373052289345
  N   3.52381689647135      1.12350799187308     -0.02886674972703
  H   5.65859755778914     -4.59325241868747      0.49351571020596
  H   7.69628125713882     -1.78159287697769      0.50913354195757
  H   7.94649403075191     -4.26939603759236      0.89990237333657
  H   7.38040883425927     -4.12999898109185     -2.10967084817122
  H   7.89448186687593     -5.61947768713368     -1.18022531420967
  H   9.47835054716656     -2.95639703954093     -1.43303769631697
  H   10.01473333259499     -4.42489438721119     -0.48110224159460
  H   5.10325872959869      2.34134609581605     -0.54580314417792
