21
Coordinates from ORCA-job 10594optt
  Br  1.21673447753859     -0.37927889223812      0.30647531683643
  C   2.99512599642229     -0.00308076268360     -0.21049178020806
  C   3.53225690771834      1.28620096375505     -0.13967204768848
  C   2.86282123701309      2.57389396172856     -0.08148945942479
  O   1.67817224180884      2.89122953757058      0.00523718763490
  N   3.90178179900611      3.51190512688891     -0.12066562378650
  C   3.66560207852858      4.90951689350242      0.02626110263852
  C   3.96966195446090      5.69803378607385     -1.18462253618393
  N   4.20186402285890      6.34269482463363     -2.10334317553285
  C   5.16220824258134      2.89145756583342     -0.17664129721156
  C   6.36385854421559      3.60761623390641     -0.20799465360610
  C   7.39268056478826      4.24059711388394     -0.22588959671951
  C   4.91972342703465      1.53754286473242     -0.19468427141299
  S   6.09693599744293      0.27420920515616     -0.38531005692310
  C   5.12482383343610     -1.16538356330411      0.00296028999989
  N   5.67392504762355     -2.29102848692585      0.18372603332004
  O   3.79055899665169     -1.11193647200311      0.07270834280564
  H   4.25636472854421      5.32919414319973      0.84498224585910
  H   2.60234380098700      5.02010978613334      0.25170686806820
  H   8.29795626335466      4.79421990299685     -0.27271411571572
  H   6.68459983798426     -2.20471373284055      0.13846122725086
