23
Coordinates from ORCA-job 10597optt
  Br  2.59437885774298     -2.49113045397216     -2.51108693822267
  C   3.84094968680528     -1.85024513827428     -1.17029005309642
  C   3.37074526692100     -1.76341096528371      0.16756653457397
  C   4.14521067626875     -0.87800827262357      1.03263230928441
  O   3.85455307006364     -0.47640615661171      2.14269925956481
  N   5.38419673252326     -0.52814097774902      0.47277387504088
  C   5.91649963824328     -1.16476678438438     -0.65288304218185
  C   6.96600486285136     -2.23802463021294     -0.43083098200678
  N   6.23047973441660     -3.37474442006049      0.12753389798292
  C   5.72668866573741     -4.15746206422179     -0.71691638735484
  O   4.77018111032273     -5.07228389167295     -0.45396102835157
  C   3.96055537597310     -4.89079794776145      0.70964575226621
  C   2.63042475895828     -4.20824346374079      0.30986483983743
  O   1.74440519084192     -4.84350936400199     -0.19040077310077
  C   2.51784906280346     -2.74282851894091      0.78544754739201
  O   1.89901852626105     -2.64079746448742      1.83084363710864
  N   4.99820128212126     -1.53348736831661     -1.62057594952750
  H   6.00959802508967     -0.09861133777919      1.13729281208224
  H   7.72022064421510     -1.91070877953376      0.28453031801322
  H   7.44363956443735     -2.47691650558314     -1.38793144892378
  H   5.98141222887280     -4.18331570078179     -1.77907884981089
  H   4.49652574727498     -4.31413668760827      1.46191727667711
  H   3.72326129125466     -5.88802310639764      1.07720739275322
