22
Coordinates from ORCA-job 10590optt
  Br  1.04600821435002     -0.06404991302583     -0.19914282211602
  C   2.92850209781336     -0.07647912867114      0.00796400894858
  C   3.65421086042539     -1.28246439185889      0.05667170651232
  C   3.17991928014971     -2.66902115306885     -0.00261935762309
  O   2.05255515925503     -3.12062635774603     -0.00777944057001
  N   4.31647368311150     -3.48794174128489     -0.05613492211861
  C   5.53141838174162     -2.75373514422610      0.21987212118642
  C   6.61119973160819     -2.99897491164260     -0.81854870087032
  C   7.13773723952084     -4.39527358275644     -0.78689516862699
  O   6.83852126411935     -5.24425725796994      0.01536728550598
  C   8.16123192450819     -4.79789272048761     -1.85641431995298
  O   8.59274565435346     -4.04478745758359     -2.67895844329295
  C   5.05851613023432     -1.31199060232932      0.19544523551117
  N   5.91945617472404     -0.34751046672781      0.28689753364946
  S   5.34485150104536      1.22685860431418      0.25001254819750
  C   3.53764394508016      1.20073070329415      0.07811372432879
  O   3.01850380841089      2.30552005151525      0.03564334163658
  H   4.20904082317494     -4.43052395459591      0.28454808878286
  H   5.92591687321975     -2.99438220718493      1.21253009991912
  H   7.44504443950327     -2.30290926717844     -0.67569421833880
  H   6.22781289526192     -2.79691594288202     -1.82374694000127
  H   8.47068991838860     -5.85837315790320     -1.78713136066774
