24
Coordinates from ORCA-job 10617optt
  Br  1.10390903260754      0.16444105359722     -0.71059429608009
  C   2.91290593948790      0.09181969095185     -0.11957603824552
  C   3.58004667320245     -1.14934770954629     -0.02765528415888
  C   2.85910751514559     -2.39277185875501      0.11695489604552
  O   1.68001063482887     -2.57642848509705      0.38905976975408
  N   3.65324855286296     -3.54247191464712     -0.07985592632055
  C   4.97568076584396     -3.50189794130734     -0.37680986349580
  N   5.67522862577817     -2.43758037859728     -0.39713367404672
  C   5.03616741158848     -1.22752599974182     -0.08509634932089
  C   5.84382145200708     -0.14857409848118      0.10953794872179
  C   7.32991818857757     -0.17449842553460     -0.06191866378761
  C   8.10562573859284      0.11343270379285      1.23844589199492
  C   7.97106831756032     -0.94734567035787      2.23700684686996
  N   7.90640982707456     -1.77698856342293      3.02572534390848
  S   5.20285745850475      1.40153294891979      0.60335016023730
  C   3.50057758344074      1.37752669771710      0.03384351671169
  N   2.89978294924474      2.50669990763470     -0.12567415436638
  H   3.15498605805388     -4.41459138677712     -0.00946967501880
  H   5.44146529137161     -4.45814185911487     -0.59902910796503
  H   7.63277533898807      0.59681116387221     -0.77801415362654
  H   7.62298640685202     -1.14632255511091     -0.45357942718296
  H   7.75369254387303      1.04449428880131      1.68846235921785
  H   9.17077649879933      0.23187392157300      1.02857498792355
  H   3.54295119571344      3.27985446963135      0.02544489223066
