23
Coordinates from ORCA-job 10610optt
  Br  1.17742408383493     -0.17328093850633      0.73996171537820
  C   2.86480136305384     -0.16120341151886     -0.19760299985887
  C   3.72002044399833     -1.26793746116706     -0.14703317775807
  C   3.36770833456035     -2.68561512993694     -0.14251702991361
  O   2.27331944795427     -3.24455113950802     -0.15892461849454
  N   4.59223155243425     -3.33990551502865     -0.12425163041106
  C   5.66460803950282     -2.46118454929469     -0.12498668445630
  C   7.01916537995999     -2.95347160300372     -0.07903008484767
  O   7.29522443377911     -4.15572346959958     -0.04303609935920
  N   8.01257530702678     -2.01108708769959     -0.07611804148197
  C   9.36870804504483     -2.42804134394187      0.00326481859710
  C   10.32865728016283     -1.28235409653805     -0.00168779008555
  O   10.02589490438807     -0.12291352586820     -0.06642116416483
  C   5.14180146523796     -1.18484842428481     -0.13792521891469
  N   5.89871339089506     -0.01690165970879     -0.09608301240262
  C   5.30194215682872      1.10391107323293     -0.13626505319236
  S   3.58859052318846      1.43670159489431     -0.28076978525890
  H   4.69877632660192     -4.33999628989579     -0.12353706939557
  H   7.77279441731311     -1.02548782407268     -0.07274591140723
  H   9.64710414957812     -3.09087673454720     -0.82891420064412
  H   9.57420324023510     -3.02403582401397      0.90504762205450
  H   11.39364938937840     -1.58355670592009      0.06054664881879
  H   5.89408632504248      2.01636006592771     -0.10397123280144
