21
Coordinates from ORCA-job 10615optt
  Br  1.26852931297247      0.15243780715576      0.84682794307236
  C   2.96897765016640     -0.10127720904040     -0.06239608780675
  C   3.68085196273428     -1.33287316813634     -0.00373980241429
  C   2.97092698595891     -2.62239915815624     -0.07690045335502
  O   1.75255775681484     -2.69037035692253     -0.21234781835440
  N   3.75642805289816     -3.75683703006277      0.00113157751658
  C   5.05788781440447     -3.62080334441671      0.04984331143576
  N   5.79828115804961     -2.50589524007270      0.04902281994630
  C   5.08884645906456     -1.37467046250232      0.03337130250267
  C   5.78556821849366     -0.10116669825423      0.04008484048422
  C   5.04865344550286      1.06279749069336     -0.00624160220538
  N   5.91588124768450      2.09428560823549     -0.00581232181239
  N   7.20495671919576      1.68127212164769      0.03724285253538
  C   7.12940804909352      0.35411418599841      0.06595132266619
  C   8.32742048731092     -0.41931208456553      0.10561520427226
  C   9.34160523596379     -1.05684548721103      0.12949547821142
  N   3.69530428801741      1.09969272163988     -0.04738627965766
  H   5.63271840677385     -4.54585636009612      0.09021997355777
  H   5.71775307483341      3.07799921401607     -0.02494834363739
  H   10.22526612425252     -1.64627664370090      0.15067895222868
  H   3.19017754981382      1.96098409375120     -0.17271286918630
