23
Coordinates from ORCA-job 10613optt
  Br  1.52766281584310     -1.26974880399110      0.14634352131816
  C   3.40943192447939     -1.03050819996304     -0.14399287684558
  C   4.34266492137821     -1.18634771100219      0.79972724250990
  C   5.77639164168310     -0.91947230743985      0.39975991114055
  O   6.59196168924617     -0.70839153391809      1.30306386030563
  N   6.06102416005321     -1.04272434003873     -0.90133358023941
  C   5.08134541750004     -1.18051174658683     -1.81708412389061
  N   3.75616701473658     -0.80076863475628     -1.43742056220642
  N   5.12751747081075     -2.39379492769966     -2.62771597069268
  C   5.22459240485253     -3.59582194289680     -1.96854764338494
  O   5.81568858454485     -4.57531390928859     -2.35698402575550
  O   4.51092236711066     -3.54783040025346     -0.82357090439192
  C   4.84423134666913     -4.43601857339802      0.23369073507403
  C   5.51184675789927     -3.71769481664187      1.39732559240574
  O   4.61733690050968     -3.06367069080516      2.29858947723490
  C   4.04235150319265     -1.84762081974727      2.08584595270350
  O   3.28383845698291     -1.44036980241104      2.92006910706381
  H   3.03137598530877     -0.82728516510588     -2.13400901648227
  H   5.73939553053587     -2.36054015210011     -3.42877138606891
  H   5.51874745615329     -5.20324610477875     -0.14938281982324
  H   3.91662565582123     -4.90334403781176      0.56789095214659
  H   5.98186223108399     -4.48153744413348      2.01891370441783
  H   6.29301776360455     -3.04343793523200      1.04959285346086
