21
Coordinates from ORCA-job 10612optt
  Br  1.55876860469138     -1.41091436966211     -0.68282037225239
  C   3.48113093529216     -1.13159475301515     -0.69265327232296
  C   4.12354813908960     -0.89426406016005      0.56384120455406
  C   5.30910413084951     -0.04158816384309      0.47910358581795
  O   5.89790682450119      0.50307923527086      1.38828293465283
  N   5.80457126357989      0.06660710314344     -0.85670240816167
  C   5.42467330681290     -1.00041038359370     -1.69708175825321
  N   4.02600860192126     -1.09531147567893     -1.84690848552346
  N   6.15442012798238     -2.16566905635260     -1.49631353406020
  C   5.52102251973303     -3.25441681350266     -1.38915770890613
  O   6.12278180153035     -4.36135907835131     -0.85893134977027
  C   5.33466822784993     -4.84780992003247      0.21023306590132
  O   5.13268643577206     -3.81261239749654      1.14725274372384
  C   3.87702831726338     -3.26704908289832      1.25401683886637
  O   2.88429809433669     -3.88211716815868      1.00220708239137
  C   4.02689966732539     -1.78823577764095      1.69433917348748
  O   4.26611581966564     -1.57668462815910      2.86306380394494
  H   6.78932575605335      0.29580539485880     -0.84784476668588
  H   4.45277341037277     -3.37649715626189     -1.57875236295007
  H   4.36739577802672     -5.21256491030685     -0.14276578897658
  H   5.91387223735030     -5.63739253815865      0.67959137452265
