20
Coordinates from ORCA-job 10622opt
  Br  0.68569615599333     -1.04636469504182     -0.54920450976309
  C   2.96521928221564      0.14463107664348     -0.19831308873940
  C   3.62120286564814      1.33503945276890     -0.02334151204777
  C   3.17589161078675      2.72537337070275      0.06950415115227
  O   2.07866994754972      3.25351028500550      0.02151206939247
  N   4.37240561864070      3.43128420034524      0.24554667735303
  C   5.50177777010857      2.59888443214223      0.27160562283940
  N   6.79985973804949      3.00623507857800      0.44190682782269
  C   7.20154341581401      4.16780113667851      0.58368225149209
  O   6.51526089586277      5.37132046589614      0.60655845750600
  N   7.44937347014946      6.36359134193243      0.79667720142338
  N   8.56872298803733      5.88027067604588      0.88163842514061
  O   8.52711935649500      4.52181789501355      0.76067455862355
  C   5.06010211377055      1.31840263512516      0.10980846012678
  C   5.71202854511552      0.05080776370215      0.05600769387361
  N   5.06565256089677     -1.05370568151831     -0.10902036904925
  N   3.71294775283248     -0.96169013619067     -0.23127077825541
  H   4.37580885541969      4.43262278422663      0.33930084399981
  H   6.78782638229578     -0.03765127843135      0.15217711734142
  H   3.23889067431782     -1.84418080362457     -0.36245010023224
