24
Coordinates from ORCA-job 10628optt
  Br  2.25226179587130     -1.76669747583599     -2.14135012223629
  C   3.69803501133420     -1.16684503844032     -1.04304528798773
  C   3.71583420442968     -1.22426501604620      0.28617131686976
  C   4.87435685310551     -0.49375558902484      0.95485357577527
  O   4.72033371220050     -0.07611863454973      2.10417755661464
  N   5.98635338836201     -0.42271984211964      0.21756576250799
  C   5.94540311956076     -0.75626115933746     -1.08344708152885
  N   6.67068343548913     -1.93345099320133     -1.55808814765140
  C   5.95205820913603     -3.13882596873467     -1.20819274371657
  N   5.23359392356004     -3.76437645711925     -2.04135186973482
  C   6.02354910540185     -3.56992174148628      0.20915998439559
  C   5.01057533156186     -4.05352947785996      0.92380077749301
  C   3.60864017639758     -4.31156899093819      0.51189353059008
  C   2.60264628122650     -3.45230223297915      0.64403863181229
  C   2.78933184061326     -2.03945556977998      1.10217136931337
  N   2.24446305928631     -1.65922811406517      2.18321203146049
  O   4.70146120454359     -0.67894813511168     -1.77781729283983
  H   7.54466542693340     -1.90546500961132     -1.04058045527282
  H   5.28804155104682     -3.28412421782479     -2.94168964612540
  H   6.96364252271105     -3.38213014555302      0.71699950986881
  H   5.21428252775591     -4.27309725557484      1.96996806180939
  H   3.39048104436349     -5.32053547754235      0.17437095113386
  H   1.58956902047006     -3.76985592427622      0.42707594726511
  H   2.56373725463910     -0.71052153298757      2.39310364018406
