21
Coordinates from ORCA-job 10634optt
  Br  1.26909527608781     -0.40297049505577     -0.15582770227125
  C   3.10572403914005     -0.00101858278203     -0.17443558993703
  C   3.66402170075160      1.23697501325096      0.08527538881678
  C   3.17995778984959      2.52911089380619      0.44053869140924
  O   2.04838869405684      3.00204628381902      0.54484969077735
  N   4.36077040662215      3.29964219745033      0.66464747916513
  C   5.47808216771032      2.52349494175953      0.29947155191764
  O   6.74875531006784      3.04521714377918      0.47547870310791
  C   7.10785492338109      3.96037023167706     -0.42460755109790
  C   6.54883924463145      4.49051038296437     -1.56103842381567
  N   7.42020933276448      5.41440990992283     -2.05159283802608
  N   8.46082625718476      5.48536776100982     -1.30010065914467
  N   8.27995849763967      4.60537899068044     -0.29716773112962
  C   5.12081803243184      1.26164485987180      0.00041306117695
  N   5.90467822240025      0.15730826052714     -0.27586276113504
  N   5.29502184784001     -0.97761881729350     -0.51199648874345
  N   3.94428778116647     -1.01558256274598     -0.45766098983795
  H   4.30959284539327      4.28338260836975      0.43962950269676
  H   5.61305858243632      4.25048215776861     -2.03250348949677
  H   8.98015592510931      4.47568092239339      0.41309475477765
  H   3.57390312333468     -1.93083210117323     -0.65160459920995
