23
Coordinates from ORCA-job 10636opt
  Br  0.83735593970664     -0.45194319081732      0.75780136856195
  C   2.81947205376588     -0.13599906801380     -0.28350473587725
  C   3.53921616231373      1.02801978587326     -0.18492884424936
  C   3.15599377596154      2.40673989308139     -0.36709252553973
  O   2.11319564472154      2.95198946213927     -0.66764572404428
  N   4.37382214270015      3.13225052673431     -0.09802119704751
  C   4.44915661971319      4.48722771603979     -0.14300955012388
  O   5.45416610094981      5.13059520269814      0.08251019860459
  C   5.43885047138044      2.25721955363304      0.21690725375636
  C   4.95378479737272      1.00153279512037      0.16880253676808
  N   5.61518617714893     -0.20069084957588      0.40579479513510
  C   4.88437252650205     -1.23940813929815      0.28628227849875
  N   3.56358348265135     -1.27966374070231     -0.05823772078360
  O   5.37560167288144     -2.48439969081091      0.47876431437547
  C   6.75359999067970     -2.53325808852227      0.81513259242751
  C   7.13542946055822     -3.93280656103617      0.98169214006992
  C   7.47269388923943     -5.07162554460257      1.12737412111762
  H   3.48463042270475      4.93708500821074     -0.40905750466404
  H   6.41522063616648      2.64801926847450      0.43906620641289
  H   3.09183810727357     -2.17053554803937     -0.02899013443153
  H   6.93308446519746     -1.97286273573075      1.73451359805808
  H   7.34490218669539     -2.06035827251388      0.02873007450962
  H   7.76284327371514     -6.08612778234144      1.25711645846522
