20
Coordinates from ORCA-job 10637optt
  Br  1.00128637868221      0.02662786274446      0.16645320527018
  C   2.88818114627636     -0.09711655241824      0.02583304567038
  C   3.52665698865943     -1.35169659184930     -0.01600409425795
  C   2.78825068799523     -2.62168676472571     -0.09025717554566
  O   1.58380037783376     -2.76367138692294     -0.21722922962073
  N   3.56518371191990     -3.76969440432036     -0.01794308783134
  C   4.94325948636241     -3.89384244293925      0.04285600807500
  O   5.45573169415271     -5.00424480673636      0.08104357548758
  C   5.63776218195653     -2.63874767788289      0.04300367162041
  C   4.96193869800045     -1.45433451018059      0.00977010332175
  S   6.02312659798838     -0.06045004857937     -0.00647372804356
  C   4.94565114022561      1.28796404352761     -0.03190292838169
  C   5.61762678660506      2.55386243798592     -0.07342061908333
  O   6.84090635456319      2.66527296376647     -0.09225321471598
  C   3.54375591654659      1.13787554541432      0.00986901531854
  C   2.78945766516461      2.35617332003404      0.03485636025603
  N   2.25130381518255      3.37240817959210      0.04819953707283
  H   3.04221080530315     -4.63296428561567     -0.06568964106730
  H   6.71750872945063     -2.67313624672711      0.06846672970909
  H   4.96940083713115      3.44240136583289     -0.08717753325425
