22
Coordinates from ORCA-job 10631optt
  Br  1.44687462060623      0.45204746899440     -1.20169341427280
  C   2.92637190748113      0.04911155639032     -0.02247773180584
  C   3.54008948407093     -1.22333301407819     -0.03342732840737
  C   2.79387104849431     -2.45742288949649     -0.00644500282340
  O   1.57908873116334     -2.58206651580260      0.02390492561204
  N   3.60241220005648     -3.58764867953682     -0.01478929313072
  C   4.99898372961750     -3.63571704513925      0.00576343896237
  N   5.65889501710933     -4.74003529535187      0.01848954958205
  N   5.65204237104749     -2.43183566535671      0.01777904884480
  C   4.93875974614481     -1.33750394829242     -0.00673769615497
  N   5.66723911696391     -0.13074605836799      0.01370523083317
  C   7.10677125955119     -0.14849985169829     -0.03604650423902
  C   7.66101528623183      0.23617200644663     -1.38417794613504
  O   7.01318502238491      0.44981136380356     -2.36602815511052
  C   5.08408922405181      1.11087860761908      0.05639278441543
  O   5.72384575762925      2.12970190687425      0.11085858066175
  O   3.73941662890376      1.16288825704655      0.07994557718632
  H   3.09236236809474     -4.45749232735446      0.00405719282872
  H   5.01924445736370     -5.53043828798055      0.00505593215916
  H   7.43879848148789     -1.16324966711890      0.19119855681982
  H   7.51996293171370      0.54057001405272      0.70369828527162
  H   8.76868060983154      0.30080806434712     -1.40702603109755
