19
Coordinates from ORCA-job 10640optt
  Br  1.19279033789041      0.25061068346480     -0.14268617388914
  C   3.06581346429931     -0.02741903127572     -0.03179054319453
  C   3.62384403452908     -1.33410249335590     -0.02221793159441
  C   2.92052684885302     -2.57292427012408     -0.13770666495508
  O   1.72140528765705     -2.74184176497819     -0.30081988036853
  N   3.73467705062660     -3.74721226586312     -0.09133235642773
  C   3.03514683524344     -4.96337241924133     -0.09292588671399
  O   3.29538517224280     -5.91362021506383     -0.76395483645189
  C   1.94658943012655     -5.06768309664748      0.91164633193497
  N   1.17126000721781     -5.27738295333492      1.72860996278874
  C   5.17348159458256     -3.79439947773954      0.00144963443487
  O   5.73659807442961     -4.86957888742427      0.06263131879400
  C   5.78987392353186     -2.51640561688173      0.05725214188098
  C   5.04570540222212     -1.36239069851144      0.06099985644850
  N   5.65108949147444     -0.14717813653720      0.14435811002360
  N   5.05723442561551      1.09247032373828      0.12803838596826
  N   3.74957630310203      1.08769350158459      0.03756175185152
  H   6.86688958810356     -2.49673872079461      0.13727818131073
  H   6.65411272825217     -0.09852446101423      0.19860859815913
