24
Coordinates from ORCA-job 10648optt
  Br  4.02357018371698      6.00314276344523      1.22083198305703
  C   4.98218850898138      4.38850595766328      0.90933859804927
  C   4.40091849893734      3.18893397336801      0.45630633934097
  C   5.34714216289205      2.11912841485075      0.40800054005517
  O   6.65274064340870      2.25877876943797      0.69691543248337
  N   7.12645638198804      3.55021016639248      1.12334668252385
  N   6.26136258976162      4.48232660043269      1.20138987906930
  C   4.67417103093165      0.97497141717251      0.03683074845687
  N   3.36524929486328      1.26703338873547     -0.15340259466405
  C   3.17334301068583      2.57791620761831      0.08147836968619
  C   1.80850915986716      3.10882247933018     -0.12020264463699
  N   1.43542027588544      4.32094297913124     -0.30821242692838
  N   0.85803154325298      2.11131652997669     -0.12801248088985
  C   -0.47549187812363      2.36967855443583     -0.57994788356883
  C   -0.53151917328827      2.70416440539027     -2.08605733197674
  C   -1.90308495086600      2.87702978973421     -2.55167190168511
  N   -2.99356284023337      2.99539819419073     -2.88848864875992
  H   5.07083472776858     -0.01814755274079     -0.10256072704801
  H   2.23033142393742      4.94599097253125     -0.26346938851215
  H   1.24610250228697      1.18210391183177     -0.20756195242953
  H   -0.88572946560915      3.21686947040922     -0.02963257526459
  H   -1.09169410422927      1.49411415744592     -0.37446263955168
  H   -0.06407749409950      1.90577248523595     -2.66445732021592
  H   0.02978796728377      3.62499596398079     -2.24829805659027
