21
Coordinates from ORCA-job 10647optt
  Br  1.10858836568367     -0.06781872280991      0.21283990575702
  C   2.99408293076892     -0.29646933612540      0.39860173760986
  C   3.67711684678522     -1.49436712884226      0.16900357062455
  C   5.10995990872567     -1.37947472337342      0.22494232957652
  O   5.67010375415114     -0.19222149786440      0.53874321223402
  N   4.85258460258716      0.97010427231318      0.85467966707348
  N   3.60146630557200      0.83132131891335      0.73067457376150
  C   5.90700762995090     -2.43692498100963     -0.04717362781242
  C   5.33583513866066     -3.72118168223077     -0.40781594688769
  N   6.00995692623160     -4.76992557837241     -0.74206027874941
  N   3.94193990017692     -3.84000907215792     -0.38077042275277
  C   3.23168274606941     -2.81354927236009     -0.10896652111519
  O   1.84773853625339     -3.02751715805017     -0.12955468929333
  C   1.22462551876918     -3.15064433907873      1.04854050529840
  N   1.78416275577431     -3.25230131869308      2.16750685971578
  C   -0.27473504099747     -3.12461057058950      0.83417876966120
  O   -1.04697522824537     -3.27890262269214      1.73630566363235
  H   6.98161846201968     -2.32014970550640     -0.00672201716334
  H   7.00195371063519     -4.54142985206972     -0.71522230391273
  H   1.05740694381196     -3.32331039822469      2.87977000611864
  H   -0.59612071338419     -2.94661763117586     -0.20550099337644
