24
Coordinates from ORCA-job 10645optt
  Br  1.27652646185103     -0.34829184280708     -0.09763636565053
  C   3.15858057152230      0.02238162481923     -0.15143653745138
  C   3.64120559645252      1.32274131531607     -0.02521798475206
  C   5.07025490658917      1.41283125435092     -0.06747686993772
  O   5.84518636493665      0.32195135988061     -0.21062622963669
  N   5.21400226980384     -0.98304474342024     -0.36650880567134
  N   3.93439659200998     -1.01884320869829     -0.31755997786408
  C   5.45871237809009      2.72773872185993      0.08039380881476
  C   4.25930953349058      3.48545714522270      0.22898540112168
  C   4.15797261754413      4.97704539576502      0.37649223536880
  C   5.12479652641717      5.55059912413019      1.31406964424238
  C   5.92231859533855      6.02476940174911      2.07444316592679
  C   3.15539085893539      2.64101624341397      0.17208965282392
  N   1.79669371758869      3.07509022962142      0.24537069123842
  C   1.17646403208056      3.17450250352069     -1.07001159391794
  C   -0.19686579008971      3.68863946403665     -0.97182614460038
  N   -1.27097343321667      4.08241277973839     -0.89831737921578
  H   6.46642964021680      3.11030272389972      0.11440727606295
  H   3.14607994347758      5.22159141194170      0.71003884295584
  H   4.29920921076201      5.47457133541260     -0.59055170194945
  H   6.62745513611320      6.42832702610092      2.75906189611699
  H   1.25273859741220      2.44082332150687      0.81914381953416
  H   1.14213041616023      2.22023726661102     -1.61153511198816
  H   1.75798525651361      3.87515014602779     -1.67179173157119
