21
Coordinates from ORCA-job 10646opt
  Br  4.19973726055082     -1.37300848696920     -3.04614903356378
  C   4.14524110631110     -0.23086553772667     -1.53726981544524
  C   4.99816268963517      0.88133631250547     -1.38564406538536
  C   4.86451793606656      1.55637640359729     -0.13364863328927
  O   4.07638649176334      0.98848261517527      0.80591251231059
  N   3.10634819468684     -0.06423433286337      0.48891069298895
  N   3.24335659311730     -0.60133463876312     -0.64822247166208
  C   5.37266261007209      2.77952407496449      0.27245418448888
  C   4.87121368789941      3.26278296560127      1.62359200269918
  C   5.38575402140672      4.56412981265853      2.04650529029244
  N   5.76971520894537      5.58092075360380      2.41272620751724
  C   6.21106866887018      3.62503279936979     -0.51394969316710
  N   6.98858697375652      3.34460064188961     -1.50149578282016
  C   7.17171370254655      2.03036687930859     -1.90421628138079
  N   8.28746102417805      1.42992748328448     -1.93766513338460
  C   5.93773530380042      1.31272445109708     -2.41552483028844
  O   5.80741849228878      1.10890654814967     -3.60588626296718
  H   5.13843482345550      2.54801744430128      2.40599869268120
  H   3.77930383545918      3.31865532384717      1.64225932615375
  H   6.20806761648009      4.67634190567884     -0.22578224408697
  H   9.01011375870945      2.06531658128959     -1.59290466169123
