22
Coordinates from ORCA-job 10642optt
  Br  0.99046332273897      0.11258679093968     -0.22348384777359
  C   2.86541512341909     -0.00549412749117      0.03862959674255
  C   3.54965644042685     -1.25647913509446     -0.00686652882914
  C   3.00199059748962     -2.55029759743386     -0.32620387088751
  O   1.84488374520330     -2.81556546370847     -0.63323224309758
  N   3.94389065881376     -3.56860712984230     -0.26308798042150
  C   5.30656259193321     -3.47006756569094      0.03576077416259
  O   5.97904657048477     -4.49119310142517      0.03482993874555
  N   5.78951483326012     -2.22747230994593      0.30479821088158
  C   4.93744319263774     -1.21947270717000      0.27458025562987
  N   5.47980673144611      0.00237810157280      0.54935789948757
  N   4.85776513370458      1.20832228505739      0.55262808995866
  C   3.55938575062910      1.16813991274985      0.30708733328217
  C   2.85010954029360      2.50434692577505      0.33531593163640
  O   3.77691989591358      3.58267765935006      0.43548388113240
  C   4.22712584789964      3.87864692536245      1.64937557964565
  O   3.82320158941506      3.44537299567258      2.68758956003344
  H   3.60446957089224     -4.49382267379445     -0.47819278734593
  H   6.46781060270006      0.01726554388089      0.74196511077096
  H   2.14381965417240      2.54317258089708      1.16514645131220
  H   2.30883019013509      2.66741434762189     -0.59391945629550
  H   5.02288841639108      4.62914774271703      1.56043810122917
