20
Coordinates from ORCA-job 10641optt
  Br  1.27249904418110      0.36689761385775     -0.22115612303733
  C   3.05685931888648     -0.02225269042145      0.36173365600486
  C   3.64209926035757     -1.27784408838172      0.20584353069599
  C   3.17393478245238     -2.64267149663929      0.28597449182500
  O   2.04602918235844     -3.11958901446163      0.33332919981116
  N   4.34733684733319     -3.43784829832712      0.23205042900361
  C   5.45585992320639     -2.62087449739843     -0.01684492583854
  O   6.75986534522008     -3.03120012379456      0.15869151840011
  C   7.13224011369619     -4.24412981360188     -0.23048692708343
  O   6.42594360549318     -5.08051494137684     -0.73075659107854
  C   8.55004451536259     -4.44625475197682      0.03518937455344
  C   9.71344561828922     -4.65028599510457      0.22947541257112
  C   5.04413553320849     -1.33340615744956      0.02687808439334
  O   5.83169921282260     -0.21459422395899      0.06338882724211
  C   5.22241669407574      1.00301676444944      0.01367924634025
  N   5.89430611130107      2.06821351523414     -0.06088992233510
  O   3.88998694596529      1.06953565541671      0.04873430586113
  H   4.28503330643522     -4.36023473400494     -0.17048316617945
  H   10.74687846623527     -4.82722196607976      0.40734968482490
  H   6.87938617311938      1.82725924401956     -0.10970010597465
