20
Coordinates from ORCA-job 10651optt
  Br  1.22939505133667     -0.37925801629931      0.54392180765696
  C   3.02717209851478     -0.02431448950063      0.04410941477603
  C   3.60270904678187      1.25512432059887     -0.04774645099725
  C   5.03372862709389      1.24503664558004     -0.22508522148766
  O   5.65198449279391      0.07194069653695     -0.46344845524937
  N   4.94774201824495     -1.18636075664735     -0.43087547757780
  N   3.71691464597906     -1.13832790328581     -0.14855872372392
  N   5.80920042121748      2.26496742043356     -0.19028380267649
  C   5.28567383306459      3.53463044262321      0.06013559365481
  N   6.04967175278392      4.51435364591355      0.36831736843267
  C   3.82573700481190      3.68737121372270     -0.03615189669713
  C   3.02455245333094      2.55241815790283     -0.03898907910584
  N   1.62374145580782      2.61118787477363     -0.08315060743849
  N   1.04691663258155      3.71785412913055     -0.10899428266479
  N   1.77116227154969      4.83587328101255     -0.11092675152993
  C   3.17218444165674      4.97579165962553     -0.15262017697193
  N   3.71964661714132      6.12050997902786     -0.29594358599409
  H   7.00353029737544      4.15196768533468      0.37455537581126
  H   1.20706893142884      5.66851604599476     -0.17331076238657
  H   3.00926790650460      6.84771796752180     -0.38195428583048
