22
Coordinates from ORCA-job 10658optt
  Br  1.13586189761246      0.01746894536829     -0.02048561485786
  C   3.03577210636918      0.00863224275956     -0.02026857200782
  C   3.72991664797419      1.21635532604704     -0.02064579713676
  C   3.33721652234909      2.60944604755701     -0.02118794537830
  O   2.24079581339931      3.18032289848682     -0.02148418321492
  N   4.56332105437559      3.24720205509882     -0.02135562185021
  N   5.66917817915435      2.43265265082823     -0.02103606565827
  C   5.16047517169760      1.22312868311745     -0.02058638140136
  C   5.88615302966596     -0.02703825296398     -0.02011616668397
  C   7.30907075414721     -0.02926828254945     -0.02009358442924
  C   8.51206031212416     -0.03698554698654     -0.02007211901282
  C   5.16748145250114     -1.20003562701035     -0.01970852369282
  C   5.81330824354478     -2.49609105761018     -0.01921986053015
  N   5.20252147875763     -3.64486125022734     -0.01882456448572
  N   3.87856773993539     -3.61340615260248     -0.01888006374090
  C   3.11026998654274     -2.47892501444356     -0.01930520436758
  C   3.71226794390714     -1.21698121085905     -0.01976973645165
  H   4.67983557197598      4.24405028617794     -0.02192257733450
  H   9.57412766512917     -0.02392843364605     -0.02005862320037
  H   6.89376917109001     -2.54465016077847     -0.01916541867328
  H   3.44203923103794     -4.51712159823721     -0.01853766764901
  H   2.04299002670899     -2.62596654752648     -0.01927570824250
