21
Coordinates from ORCA-job 10653optt
  Br  2.72537776128388      3.44478372745005     -0.76342521565134
  C   3.76864432170935      1.86180000648329     -0.54523598791206
  C   5.08488737089129      1.91954908309515     -0.04826026658256
  C   5.72152939304292      0.65244456517880      0.10569592061291
  O   4.97189540773551     -0.44450756638875     -0.17479326840742
  N   3.61125728856821     -0.40179046197909     -0.64659646328993
  N   3.10850519939647      0.76718884026071     -0.82149080938852
  N   6.90786026798310      0.30013039528602      0.51294745890286
  C   8.03459074150880      1.06102750711525      0.47237430869521
  N   9.12451723266629      0.80347034877912      1.09137696722763
  N   7.97184696705754      2.19266613077970     -0.39437078602163
  C   8.44210269655451      3.25262648677719      0.06327965228098
  O   8.20049839913632      4.43890337520984     -0.57824945054918
  C   6.90807864141548      4.68855392660896     -0.96521484437583
  N   5.84202467428294      4.17734525647846     -0.56918344735299
  C   5.68973244070150      3.19124824507531      0.42057299962790
  N   5.99595310572756      3.46707759900004      1.62277246405411
  H   8.97768980719070     -0.03931474485130      1.64223352863568
  H   9.01668310769287      3.36826902928117      0.97865669133005
  H   6.90461175277156      5.49030621096956     -1.69637383244454
  H   5.74271342268313      2.68322203939048      2.22228438060868
