19
Coordinates from ORCA-job 10656optt
  Br  1.31816414308379     -0.72490383462492      0.02096976105811
  C   3.16013054175670     -0.37936960976670      0.02212312864282
  C   3.68368918291147      0.89335921665653      0.02400673328371
  C   3.01771640097327      2.20118437972887      0.02544197233110
  O   1.83761969951197      2.52613270906315      0.02448038052635
  N   4.08395132500477      3.06200505364232      0.02839928785833
  N   5.34566621442552      2.48821095780502      0.02851014661804
  C   5.12659398891126      1.20821063330084      0.02599778531820
  C   6.00822013611583      0.06860971857806      0.02540571811908
  C   5.30516484588443     -1.09115083892341      0.02265347361479
  N   4.00956581482826     -1.42330869433172      0.02106864314297
  C   4.08700285978421     -3.01322960948330      0.02337604519793
  O   3.07775297593765     -3.65136850795423      0.02270562594520
  N   5.40429800691577     -3.35357603501644      0.02592557137502
  C   6.13269097724811     -2.22105977092341      0.02573170329186
  N   7.43151783350676     -1.81025111980531      0.02949161494190
  C   7.36976537291561     -0.46110012612817      0.02939408291955
  H   3.99708581798722      4.06226967388268      0.02950605735342
  H   8.27940386229733      0.12133580430016      0.03181226846162
