21
Coordinates from ORCA-job 10669optt
  Br  1.27381733909229     -0.03855651941622     -1.13054420492228
  C   2.84064081891724     -0.09583234418579     -0.02033603185768
  C   3.69644776411008     -1.19970911981090     -0.02209209824623
  C   3.39460477871842     -2.62079099322318     -0.05184861902636
  O   2.33872627303694     -3.24671969690740     -0.12577927334660
  N   4.64909546285249     -3.19201983431620      0.04371281653434
  N   5.69086297771869     -2.30450927586282      0.13230616720342
  C   5.10594723163769     -1.13676446240467      0.07952846370250
  N   5.84622925582533      0.07660461167668      0.08261922065578
  C   7.25253052225495      0.03983711576331     -0.05071744292708
  N   8.03747790010883     -0.81165033498168      0.44469348959218
  N   7.82694925130025      1.05392004205909     -0.83701556681741
  C   7.29303762470943      1.78035449295425     -1.86124494120140
  O   6.17307312498176      1.71921798424945     -2.29275402596256
  C   5.25381302158627      1.30578330804259      0.37009593016033
  O   5.90368748288947      2.28071193442795      0.66404539509819
  S   3.49218921554498      1.46784089112806      0.37177702065558
  H   4.83431704979679     -4.17759873490273      0.05930456716806
  H   7.52028897233048     -1.50337951515533      0.98104011427671
  H   8.81944098499386      1.13595555330425     -0.68425117377876
  H   8.04782294759360      2.46730489756128     -2.28153980696070
