24
Coordinates from ORCA-job 10662optt
  Br  0.46169654020588     -0.72851828721851     -0.28505552805340
  C   2.85886650474295      0.21864679591815     -0.07359261907420
  C   3.64093035472946      1.33989966248475      0.11106571830172
  C   3.43226667238940      2.78202276967276      0.24405510464046
  O   2.45240042357753      3.50913151621110      0.22808879813167
  N   4.73829933566067      3.22969243433363      0.41564003677679
  N   5.72249593238432      2.27031020882459      0.40611872279687
  C   5.04814796334817      1.16857194259796      0.22233047522064
  C   5.59125388270349     -0.15950907660785      0.12872575993713
  N   6.96258785497811     -0.25977995753969      0.25200622539059
  C   7.75525522470737     -1.38796950302444      0.18840384499114
  N   7.39346644148119     -2.58840614620198      0.00032062049286
  C   9.21802242993760     -1.10187390777610      0.42743485224157
  C   9.89787609598786     -0.24186490599503     -0.60702608275518
  O   9.35477123809759      0.32151075881888     -1.51383692269735
  N   4.83309979274465     -1.19059260657832     -0.04901737407575
  N   3.48992109127680     -0.94669993653378     -0.13787141165651
  H   4.98540392864377      4.19595030051258      0.53530115142550
  H   7.41423336620948      0.64509977815344      0.27438607494721
  H   6.38564900630191     -2.64456909031832     -0.13497987484608
  H   9.74606761422502     -2.05553802180618      0.47591960184346
  H   9.36436398816794     -0.60892667033957      1.39648549777042
  H   10.99453582210915     -0.15084383222126     -0.46947887423762
  H   2.92738849538932     -1.77674422536681     -0.26542379751195
