21
Coordinates from ORCA-job 10664optt
  Br  0.99389287119334      0.15959488215878      0.08534042544790
  C   2.90419485695984      0.17744916391980      0.08672440198967
  C   3.57587637050685     -1.04513455015045      0.08672607407253
  C   3.25139161670877     -2.45805123947946      0.08615337060294
  O   2.19555044670247     -3.08365813875228      0.08572844207296
  N   4.51239839940075     -3.03214964974338      0.08632057120149
  N   5.58037167304073     -2.14880355069700      0.08714198323675
  C   4.99313216426945     -0.99171563982384      0.08735330630651
  N   5.62473862905886      0.24416984392258      0.08805808682410
  C   7.00847800105796      0.36130408839487      0.08847770145727
  N   7.64569393339085      1.46794125314542      0.08920226022581
  C   6.91548851821145      2.64866576674184      0.08962056757203
  C   5.50300987701812      2.60917529235503      0.08912957250198
  C   4.83171679893510      1.41630671512329      0.08829074298320
  N   3.46661610753953      1.34377963584966      0.08755331084542
  C   7.62205512232236      3.86647317336711      0.09030729356681
  C   8.20479190589566      4.92612783647580      0.09151493724345
  H   4.68866881460375     -4.01962721998560      0.08646953085214
  H   7.53080331619891     -0.58742162301633      0.08813094858514
  H   4.91750845693814      3.51638393045333      0.08930831420843
  H   8.72462212004704      5.85219002974081      0.09244815820347
