19
Coordinates from ORCA-job 10677optt
  Br  1.01406839163325     -0.45259087515599      0.00662101638863
  C   2.86239201587569     -0.11848031190239      0.00696706369796
  C   3.45659713399722      1.09833593261099      0.00748297263853
  C   2.73980798680368      2.38280534149370      0.00790926899998
  O   1.52674832143100      2.54110063288439      0.00799825860780
  N   3.56275801704679      3.47840141535757      0.00837759720328
  N   4.91140295464187      3.56546079250538      0.00854596848432
  C   5.53462004759542      2.41218031687142      0.00816823253842
  C   7.00868140258072      2.43253128099874      0.00839623897199
  Br  7.83505382723446      4.17491629162692      0.00924708442721
  N   7.80615124945513      1.46370801162668      0.00818152722751
  S   7.34499673879675     -0.13982521246873      0.00742395636581
  C   5.58715585457637     -0.07518580927383      0.00725756360244
  C   4.92487091551249     -1.32936527073305      0.00674452629882
  N   5.39685690865519     -2.51770562256680      0.00633143404323
  O   3.52902713317233     -1.29294953150344      0.00657363796324
  C   4.90141923237699      1.14369687411319      0.00762629623556
  H   3.08197154760066      4.36433290380854      0.00871280861905
  H   6.41242032101397     -2.50236716029329      0.00643454768622
