21
Coordinates from ORCA-job 10671optt
  Br  1.32776177006511     -0.82155448856670     -2.05545288875856
  C   2.51384133018301     -0.31797773282660     -0.59594881527622
  C   3.47891454814610     -1.21651029935690     -0.12979810285125
  C   3.40136285982801     -2.64434213867584      0.09843739426429
  O   2.50665828024602     -3.47705746857311     -0.05304621455285
  N   4.67073819955822     -2.92950698524013      0.58217501556082
  N   5.52203945937735     -1.86717762949829      0.67774762999097
  C   4.80727761088681     -0.85754621577351      0.25669306698324
  N   5.35611958739322      0.42068100889954      0.17706779613388
  C   4.61003050312711      1.35927333945606     -0.18560607048435
  O   5.17517860821176      2.63697503939672     -0.30135860008664
  C   5.45708040310162      3.29794134329475      0.83890811908696
  O   5.11144562711507      2.97496249592572      1.93121137091549
  C   6.27222692988196      4.53232530310649      0.53400356576201
  C   5.42012797822775      5.73067106066356      0.19490507800766
  O   4.22506680157909      5.74795770129889      0.19474006072562
  S   2.91642834609145      1.39201919617052     -0.62221335506565
  H   4.98343276779161     -3.84509392333638      0.84892105570502
  H   6.95566324129215      4.35239835568896     -0.29854572103239
  H   6.86781883103771      4.78598878251627      1.41375268621382
  H   5.99978631685873      6.64057325542993     -0.05859307124189
