24
Coordinates from ORCA-job 10672optt
  Br  1.04737365742886      0.47859989390071     -0.46229482112667
  C   2.90288886977098      0.24763883961949     -0.20688146397012
  C   3.78248787266572      1.33592374474222     -0.06257013353855
  C   3.69939815578415      2.77603007549301     -0.08380031619319
  O   2.75961926444735      3.56612472487156     -0.21827143596122
  N   5.02337067749215      3.14949013003345      0.09392237424947
  N   5.92471947932596      2.10872752634273      0.22197010450963
  C   5.15954334648661      1.06807330486810      0.12569699842206
  O   5.68367981275490     -0.19466175280526      0.20732337648263
  C   4.79079285375396     -1.23961385948955      0.01704586169961
  C   5.48391979207945     -2.55600491305369      0.10375804487481
  C   6.53390201712937     -2.77328321404217     -0.94783929693880
  C   6.87954155355526     -3.89531232686430     -1.67209708482645
  C   7.96259141348966     -3.48340977491311     -2.47222056184822
  N   8.26635841094140     -2.21356109967687     -2.26351002928270
  N   7.39255021648114     -1.80926631208473     -1.33586469278409
  C   3.45109495885734     -1.04042027045432     -0.17186802271540
  H   5.35092926913124      4.09657063034249      0.12627321780179
  H   4.74408163797914     -3.35088377350555      0.01932077990630
  H   5.95823206122892     -2.65475616993570      1.09001182916068
  H   6.40739326410817     -4.86185835858041     -1.62755147386010
  H   8.52820557698044     -4.05598078288810     -3.19052108539590
  H   7.37394498244973     -0.85088013488629     -1.01654032623960
  H   2.82138085567804     -1.91028612703367     -0.29849184242595
