23
Coordinates from ORCA-job 10689optt
  Br  1.18025813126720      0.04066970217012      0.96310699156557
  C   2.97293539723962      0.07329621571906      0.39318460466003
  C   3.61548920945112      1.27718863400772      0.07250321067394
  C   3.39511159521463      2.66384504614412      0.36551781556279
  O   2.47464865489282      3.28367263446385      0.83402708299466
  O   4.59618770092468      3.37499643139468      0.04137188266151
  C   5.54059278293705      2.50548557063664     -0.55279977325921
  C   6.97476186888519      2.56842337881084      0.09520813561764
  N   7.51316579694354      1.30128487711040      0.59806837262342
  C   7.14737890960164      0.13354570084063     -0.23624449094322
  C   5.65578942715274      0.02944462087848     -0.30975786502664
  O   5.04512202324005     -1.15484615456101      0.00523782827139
  C   3.65437060002917     -1.18295416652801      0.28455362296058
  N   3.13064960826661     -2.33726317698064      0.45463191303728
  C   4.95638218616965      1.15654347234776     -0.36630045017551
  C   7.93808696976599      3.11853518878878     -0.87675732490542
  N   8.67263152822740      3.53547836673227     -1.65230372974142
  H   5.63227422731119      2.77162702777715     -1.61018798695308
  H   6.91358314674046      3.27163728306745      0.92671271592434
  H   7.11012054847603      1.14756800512814      1.51580498243343
  H   7.56845491691627     -0.76239257368095      0.21958136837356
  H   7.62356667092988      0.26437524569142     -1.21294345642116
  H   3.85143809941701     -3.04716132995892      0.35378455006552
