20
Coordinates from ORCA-job 10680optt
  Br  0.94551244950330      0.24473797861203     -0.26919657326521
  C   2.77432232209311     -0.16502680783089     -0.02210573533200
  C   3.26809517489529     -1.44036256809346      0.04331877109775
  C   2.87186915309202     -2.87699305716832     -0.18883623643419
  O   1.80109054175218     -3.38784322986286     -0.30589513051549
  O   4.04658564556819     -3.65118528946861     -0.26257593177748
  C   5.11078896518896     -2.77091440200265     -0.07901259678221
  C   4.64079424334328     -1.53075523854011      0.17347455342530
  C   5.69771764404533     -0.60817463370217      0.07835651303599
  C   6.81602717401166     -1.48123322854945     -0.18243933104192
  N   6.43290322409279     -2.78554964169117     -0.30198347144890
  C   5.16021318348595      0.67274077052972      0.05655594337452
  O   5.81532425382914      1.84834793764632      0.00124700527072
  C   4.86793137063204      2.88488535298255     -0.05035084362530
  N   5.22654044060246      4.11162203926251     -0.10971956311634
  C   3.57586513586546      2.29040791992753     -0.02771309128684
  C   3.72995041051464      0.90870870981516      0.03295847672484
  H   7.85620493719698     -1.21475552004703     -0.28147079874352
  H   6.24245666563378      4.17150987201128     -0.11656138162948
  H   2.65980706465337      2.85283303616962     -0.07805057793023
