21
Coordinates from ORCA-job 10688optt
  Br  1.22413542275812      0.03691078386107      0.04548761095436
  C   3.11750077216851      0.09813293163258      0.01565508700023
  C   3.87574549035075      1.30699179785433     -0.00790342223545
  C   3.76581759241514      2.72895794899094      0.07187905316023
  O   2.86661395935689      3.54033080812541      0.12268613959327
  O   5.16814739889320      3.27064197090991      0.07280770927913
  C   6.00539425277646      2.20850022964180      0.01613666681493
  C   7.31744665471500      1.81652454968243      0.10386264489089
  N   7.31900721133634      0.38419014888766      0.13451494384561
  C   6.01465972616285     -0.07851214533998     -0.00878052056760
  C   5.23426008939171     -1.25605081506821      0.04930982566846
  C   3.82943527729067     -1.10413535825154      0.03412871024496
  N   3.31907498057180     -2.40206946330809      0.03459584525211
  C   4.31396602673333     -3.35318799624183      0.06256019404968
  O   4.18450741975027     -4.56687095775670      0.10790359660379
  N   5.48679630746570     -2.63669698335382      0.03134593503070
  C   5.24648284050824      1.04815351976774     -0.06000827835370
  H   8.24822384106364      2.34967285853205      0.18095159117982
  H   8.12295811006463     -0.13222758570308     -0.17767502169542
  H   2.34157499322345     -2.63574102502869      0.04925545429400
  H   6.36825163300322     -3.09051521783399      0.18228623498999
