19
Coordinates from ORCA-job 10685optt
  Br  1.07372556202486     -0.87901916607892     -0.08619849536878
  C   2.89158099542466     -0.37631019126694     -0.08746234110373
  C   3.90448204648033     -1.28422904219286     -0.09324811148967
  C   4.00096661664444     -2.77150070550035     -0.09950515322486
  O   3.16814148734253     -3.61965164648542     -0.10132538459235
  O   5.36964876264825     -3.11591066345035     -0.10367311722613
  C   6.08087732193772     -1.94353321167859     -0.10045160613505
  C   7.38952446575767     -1.53202864442737     -0.10155454049640
  C   8.58336491184327     -2.27607111569805     -0.10634620496607
  C   9.63526704975340     -2.86391430423559     -0.10980372636776
  C   7.35555565142396     -0.02094675843880     -0.09571592247198
  N   8.36011345464730      0.77629205527199     -0.09535224195402
  C   5.92671246280870      0.35873601415676     -0.09073265715973
  C   5.22450577875845     -0.84548048878170     -0.09407415133521
  C   5.24443198063566      1.58205125965384     -0.08441788733305
  O   5.52149769995313      2.73994384329164     -0.08018661645602
  S   3.25528836266640      1.32001640110158     -0.08089819618449
  H   10.55039611913266     -3.40340750735917     -0.11319410298914
  H   9.22391927011651      0.23096387211831     -0.09985954314557
