19
Coordinates from ORCA-job 10687optt
  Br  1.14817297829875     -0.00984775396231      0.04262186484256
  C   3.01301482924625      0.04771166224092      0.04562978017475
  C   3.78283532794971      1.17610870098002      0.04669462440669
  C   3.65216531134506      2.66902123646279      0.04671976998366
  O   2.69539148693354      3.37731377414881      0.04624464780490
  O   4.94537416744782      3.21394476287410      0.04759746942206
  C   5.85524727679514      2.16334955146364      0.04817982451471
  C   7.18511141967708      1.87238327911359      0.04855552186640
  C   7.31695029912903      0.36480086838226      0.04853232434683
  O   8.39064842467621     -0.24141775154999      0.04869804277377
  C   5.93243079101673     -0.16586097118365      0.04803848312728
  C   5.12739387629065     -1.33173229543337      0.04742555419278
  N   5.36750086304201     -2.63584920058978      0.04773495543926
  C   4.14103585154649     -3.19037745179571      0.04679441767898
  N   3.11699551557716     -2.36535120347187      0.04590287821350
  N   3.71542741299036     -1.15259160082224      0.04628501477295
  C   5.14142357472201      0.96891579692780      0.04787802121854
  H   8.04745345720511      2.51945722908205      0.04865148301093
  H   3.98142713611084     -4.25797863286707      0.04681532220946
