22
Coordinates from ORCA-job 10690optt
  Br  1.02876019890341     -0.21892847896849     -0.35572402391929
  C   2.89842870617895     -0.14723150713780     -0.15104265372458
  C   3.68394221732749     -1.30832069965844     -0.15298932624373
  C   3.39613077442506     -2.70303080381119     -0.29190813633371
  O   2.38803604974778     -3.34109457241603     -0.44663731960587
  O   4.63286893250675     -3.40102527576015     -0.19043834374703
  C   5.70299856865990     -2.51751401030140     -0.01466313832063
  C   6.54647427377094     -2.93556932658700      1.19480270429644
  N   7.57321718833159     -3.77234246404704      0.59185967695067
  C   7.53498035544087     -3.61868643654985     -0.79439312892136
  N   8.22827909438790     -4.18032281398911     -1.68745520393182
  O   6.61847870782393     -2.67587402501852     -1.10319720440546
  C   5.08468530654959     -1.15623091170484      0.01323716763543
  C   5.64390027960326      0.04750736749790      0.16442782520664
  O   4.88792333473297      1.17790718207952      0.16225275452801
  C   3.48011972680920      1.14236834095987      0.00564885150508
  O   2.93700249752419      2.22314804483152      0.02649041022218
  H   5.93095582929773     -3.47422779867987      1.91117123303245
  H   6.98670362763974     -2.05875424894241      1.67256004835651
  H   7.66605270976095     -4.72108657531020      0.91450026791440
  H   8.92157475466406     -4.78457100162663     -1.25626988462989
  H   6.70048686591368      0.24788001514023      0.27476742413557
