25
Coordinates from ORCA-job 10698optt
  Br  1.05028445552453     -0.04343610289711      0.17502059174350
  C   2.93000128129601     -0.04425090136204      0.04774131984914
  C   3.65110603228006     -1.25110814858036      0.02244111654397
  C   3.22990790837570     -2.62105858368604     -0.01363988277185
  O   2.14706535887833     -3.15476979592644     -0.06197179722789
  O   4.38180286506687     -3.43469968095676      0.01135313983174
  C   5.55528105852712     -2.65142633897619      0.08239874281878
  C   5.07732601687968     -1.22843330039087      0.05197270942929
  C   5.70699257600366     -0.04651783887609      0.02443793061216
  N   7.07434030331220      0.29473792746231      0.07049415967513
  C   7.24860171363071      1.72612039188138     -0.14367805782604
  C   5.85464796502957      2.28562592157772      0.14345817794181
  N   4.99312923594480      1.15119517255957     -0.10125159506978
  C   3.58201527902159      1.22546262180706      0.05105745787714
  N   2.97259368242323      2.36408529993706      0.16098925267215
  C   8.12721742430246     -0.52206970153681      0.25671891970519
  O   9.28650994470909     -0.14692618388389      0.24400271272715
  H   6.20641245473505     -2.89665343443710     -0.76466978655891
  H   6.09044364140502     -2.90068737848050      1.00608810619111
  H   7.55525973467092      1.91223362048434     -1.17546057397213
  H   8.02109547318924      2.10787943397708      0.52015037676089
  H   5.61629490768440      3.11672795659648     -0.52050048497868
  H   5.76658218981971      2.63553705635292      1.18070630977487
  H   3.62677947297236      3.13792533744910      0.13862577038866
  H   7.84430902431761     -1.56849335009481      0.43251538386261
