21
Coordinates from ORCA-job 10701optt
  Br  0.91284391257263     -0.40915137520079     -0.41375657990805
  C   2.71316074928783     -0.07473225532491      0.32279067635131
  C   3.56415517486556     -1.18828739913619      0.44631396255315
  C   3.31093644151524     -2.50462865955106      1.00807976526221
  O   2.34261572327420     -2.99185627237003      1.51887435125657
  O   4.47787688671855     -3.24435551489873      0.88366692033558
  C   5.49401497857922     -2.46894894766999      0.26711091670017
  C   4.86767829723917     -1.13615103878983     -0.01871528644841
  C   5.40774735479505     -0.04470369948323     -0.65428618885527
  C   4.64458136368163      1.15245792061735     -0.75750219018223
  O   5.00953947530670      2.20127161133734     -1.26659694439794
  N   3.32996024046356      1.10432441035430     -0.14290239533167
  C   2.67789478019074      2.30220644948744      0.03581954758859
  C   2.79849770200720      3.55693169665307     -0.49549060787999
  N   1.85086598441555      4.32047936130590      0.12282698013231
  N   1.19543995608124      3.64519489979955      0.94847873214801
  O   1.69739639642407      2.34158656118336      0.93299755384659
  H   5.82127178028107     -2.96795607317880     -0.64829264999525
  H   6.34517347269674     -2.39016552545367      0.94795095128364
  H   6.40572098728460     -0.02218155746187     -1.06575248151752
  H   3.47862834231938      3.93366540778079     -1.22961503294182
