23
Coordinates from ORCA-job 10702optt
  Br  1.02086372616062      0.01490431197149      0.32748697142304
  C   2.88797704164686      0.08357499143402      0.12565879572229
  C   3.60200859665260      1.27394239096913      0.13790113397331
  C   3.14638654932185      2.67551688750485      0.27702580875839
  O   2.05083888936915      3.13805390853573      0.41356232032671
  O   4.24868737404624      3.48863079406876      0.22415023018039
  C   5.44648815913218      2.72986212966722      0.05047180456910
  C   4.98271661445019      1.31467383604817      0.00112001827666
  C   5.72232915815657      0.15965707662888     -0.17383339259913
  N   4.98108460516710     -1.02453765124990     -0.19749085053307
  C   3.59219016264970     -1.16432431677529     -0.02364655704138
  N   3.01514646742192     -2.31854701908824     -0.00589108005408
  N   7.05113040650423      0.17517653857371     -0.32366141236692
  C   7.74219969068249     -0.89241663840880     -0.54668060852459
  O   9.11707393347260     -0.70579457108219     -0.65916365190681
  C   9.88563616732948     -1.75727736695086     -0.90440765786867
  O   9.52052708395174     -2.89485682948966     -1.04496500815937
  H   6.11620186174317      2.93462130254520      0.88878096136909
  H   5.93686417316710      3.05484547086594     -0.86980854492781
  H   5.48932195354284     -1.89284574737349     -0.20319020017817
  H   3.69494828054484     -3.06424705765205     -0.13649871819562
  H   7.42709310009206     -1.91406496576134     -0.70815828481489
  H   10.93228600479444     -1.43554747498130     -0.96176207742849
