20
Coordinates from ORCA-job 10707optt
  Br  0.93608657629081      0.36502275356666     -0.69478578114381
  C   2.61455759719308      0.29406138732463      0.27583421365406
  C   3.52092900053659      1.35178087944390      0.19805133972411
  C   3.26569610741055      2.76143147357527      0.15339464417643
  O   2.25788684298008      3.43581062231785      0.14789035195574
  O   4.52833486835954      3.38944613518152      0.10762530804029
  C   5.49877745533905      2.43048013668597      0.12790142366146
  C   4.95481444900509      1.20017621584241      0.18176790909544
  N   5.64579391681624     -0.01182782825539      0.17928879707151
  C   4.97984742534014     -1.07540782712916      0.23254733543501
  O   5.59618438684808     -2.31487535369517      0.25248491180237
  C   6.92025926328790     -2.43754148411158      0.23145721561323
  C   8.00330682828528     -1.61994442758690      0.13582262617332
  C   9.07305802835023     -2.54764104241323      0.17472512296968
  N   8.67468980588338     -3.78156164443316      0.28210963654594
  O   7.29497515801329     -3.71462102205047      0.31928912216238
  S   3.24881234487553     -1.34997361850133      0.36020169325657
  H   6.52345296393213      2.75736482666584      0.08330423568293
  H   8.01047838949585     -0.55283515646135      0.05426284106273
  H   10.13305859175701     -2.34834502596631      0.12682705306063
