25
Coordinates from ORCA-job 10713optt
  Br  1.15526832462272     -0.08771422942180      0.32241377576604
  C   3.07487880784192      0.03133958294627      0.14669388614295
  C   3.72422227004919      1.31560524349598      0.13668766650883
  C   3.07828918149165      2.57392206547930      0.36049105053689
  O   1.95112649658394      2.79687980924615      0.76455351699408
  O   3.85795948257500      3.71862622395610      0.12194481705490
  C   5.02698948177659      3.57690091204662     -0.64349821095652
  C   5.91844113254675      2.51551359596865     -0.01822279807111
  C   6.35202593356786      2.85998444709989      1.41688098248141
  C   7.68196352152290      2.12636543700920      1.50944618948095
  O   8.23885507821165      2.19149500682913      0.18607311618290
  C   7.25886262458002      2.41279179843431     -0.72425113523377
  O   7.49623203243073      2.52469761997274     -1.88949813642784
  C   5.15617006422235      1.21562784653824     -0.06495851388094
  C   5.75736263436056     -0.00840558132350     -0.22080185508820
  C   4.99315103070332     -1.17331621375098     -0.17226748173939
  N   3.64554097609978     -1.11302831644046      0.01054553248178
  H   5.51904468690516      4.55192388079714     -0.64909254567242
  H   4.79813674428205      3.29124698922356     -1.67495772411458
  H   5.62687855459671      2.52904272541060      2.15688809280193
  H   6.49905893755651      3.93852451132773      1.52053629871310
  H   7.54413170327451      1.07692559280757      1.77571658044336
  H   8.39930443054339      2.58391379089028      2.18793740049827
  H   6.82801006902012     -0.07727978884985     -0.38903794250004
  H   5.42509580063454     -2.15658294969288     -0.29522256240259
