23
Coordinates from ORCA-job 10721optt
  Br  0.81486199319557     -0.14142627961721     -0.08477778209737
  C   2.67195194199169      0.05319122341839      0.11686263977700
  C   3.39190224014131      1.22661395061663     -0.02555657815996
  C   3.11574768818627      2.58338000371550     -0.33009321388863
  O   2.10631017634007      3.21694544105257     -0.57078130643021
  O   4.36952803026180      3.23220096212287     -0.33068248183350
  C   5.35170398082171      2.29776755068388     -0.04517085277421
  C   6.75261261741168      2.75883458916107     -0.08374261366943
  C   7.11367493388160      3.44426504846850     -1.42536630710354
  C   7.13782203338486      2.50241750178783     -2.53720071403916
  C   7.15118905196173      1.70339082157013     -3.42921240571922
  C   7.15065558761598      3.69466675909041      1.04563587064271
  O   6.50595768048795      3.95246681849132      2.01867373532887
  C   4.82186809953116      1.07717266419159      0.14379056586180
  N   5.45634786609682     -0.12007493322006      0.42986136332965
  N   4.71076077934700     -1.18541897342101      0.54832465684576
  N   3.37516060080569     -1.06818958750879      0.39170046487621
  H   7.38718893935311      1.87124814089768      0.03534869562900
  H   8.09070042044998      3.93065628133964     -1.34905286196455
  H   6.36952993997868      4.21929468126885     -1.62278589054222
  H   7.14119433971118      0.98418890637417     -4.21126922225065
  H   8.16088793025930      4.14682446897672      0.91478025002190
  H   2.89244312878476     -1.94341603946070      0.50571398815976
