24
Coordinates from ORCA-job 10723optt
  Br  1.25100066507418      0.22735979505176     -0.17513924429546
  C   3.12842088728030      0.25982726787140     -0.05524921523837
  C   3.83305507513507      1.47802268455188     -0.01942259918166
  C   3.40561778734726      2.84211918014971     -0.01876253209603
  O   2.32926880686976      3.38614851581082     -0.03735303255517
  O   4.57066390455290      3.66411621095205     -0.00979033793139
  C   5.75365204607297      2.87730615407749      0.00767206227976
  C   6.57235124529343      3.20281843319151     -1.24707970639865
  C   5.81992581354085      2.90307874676909     -2.52232371864584
  O   6.34397026705480      2.94420373772065     -3.60483431355478
  C   6.55418236613135      3.19718752836373      1.20268058415709
  C   7.24096268891142      3.45100335248697      2.15140734046241
  C   5.25373393717095      1.44951878571349      0.01876278824671
  C   5.93609638045865      0.29482662404842      0.04178439834884
  N   5.21787391085719     -0.89457261185594      0.04753872002856
  C   3.81161793862320     -0.99751473320488     -0.03302163640239
  N   3.22346719686299     -2.15051158642747     -0.07665620294705
  H   7.50454882079437      2.63419263262683     -1.25190566391778
  H   6.82993638700136      4.26560861266061     -1.24609173325442
  H   4.75011325727626      2.65227310431607     -2.41854591089812
  H   7.83143788666636      3.67533613896914      3.00617275931255
  H   7.01274341529325      0.21458466027943      0.09708099169271
  H   5.71930524861625     -1.76318345376272     -0.00167763929115
  H   3.91005406711453     -2.90074978036015     -0.04524615792033
