22
Coordinates from ORCA-job 10732optt
  Br  1.16473885786165     -0.24301047618861      0.14960180583745
  C   3.06358668160157     -0.09239309618393      0.11653480794804
  C   3.63922286521308      1.18341400961339      0.09876786167586
  C   3.08897192842579      2.50186882753508      0.09860134653912
  O   1.95998014866821      2.94902232958155      0.12392229926482
  O   4.18822728244409      3.37848050465968      0.05792322519552
  C   5.38476414370571      2.68777729776554      0.03698251881768
  N   6.52968653396724      3.26302245270254     -0.00119696699936
  C   5.06190481796069      1.29166682624191      0.06273338784379
  C   5.86243142997070      0.15520543120741      0.05082580885024
  C   5.28385642000866     -1.09313248881181      0.06838858301960
  C   3.85640620488223     -1.22357917964975      0.09812662953376
  N   3.23412470199518     -2.48414440593129      0.07375448959527
  C   3.77328669325930     -3.72228822609407      0.16962576724120
  O   4.94278300100621     -4.01410398780841      0.32798062100452
  C   2.74251377341784     -4.76586515553643      0.05123416829470
  C   1.91227202070146     -5.62469314482714     -0.04604511975166
  H   6.40016385380013      4.27224982967523     -0.01123363423553
  H   6.94017901961868      0.25845519026275      0.02410571582582
  H   5.87977334257402     -1.99012903758280      0.06372663044703
  H   2.22794894194945     -2.45583433409596     -0.01733809052181
  H   1.17717733696800     -6.38798916653486     -0.13502185542607
