25
Coordinates from ORCA-job 10734optt
  Br  0.64788384649191     -0.77925057434406      0.78796838197094
  C   2.99756827159963      0.14250205866266      0.16130987724880
  C   3.71539937794615      1.24556227322475     -0.20288026546080
  C   3.35864189603585      2.59233811611720     -0.56942137723998
  O   2.33880665921757      3.21643953075833     -0.69724487851756
  O   4.59149613940735      3.23441536949660     -0.81046046197238
  C   5.65556156657639      2.36229198237547     -0.60791828130834
  N   6.94426287306303      2.77943398632208     -0.79318909429117
  C   7.25068384983269      4.00132540672227     -0.99033573067944
  N   6.47968635334814      5.14565039554610     -0.97402513555666
  C   7.24917916313328      6.27744638824163     -1.44707804168412
  C   8.66545362078976      5.83928610759334     -1.06787622156503
  N   8.56421104935362      4.40134875818825     -1.25535932852412
  C   5.16758131651351      1.15554612535823     -0.25122979474090
  C   5.75128123995941     -0.11273182597470      0.06808469545402
  N   5.04871514284519     -1.13840292493582      0.39900850012521
  N   3.68460326656283     -0.96989481536515      0.44006416105910
  H   5.48780405599796      5.04751203851734     -1.12941624650303
  H   6.95212093800249      7.20140079222514     -0.95260991803880
  H   7.16809554222345      6.41084602505994     -2.53200822614114
  H   8.87716237000754      6.11033839122797     -0.02688419857105
  H   9.42495193513136      6.27704114044092     -1.71425871748732
  H   9.26553729889575      3.80130080447964     -0.85041369578864
  H   6.82484916678966     -0.26096000047111      0.04075710702057
  H   3.16846306027520     -1.78678554946716      0.72941689119189
