23
Coordinates from ORCA-job 10748optt
  Br  1.93363770084256      0.97867090859872      2.63941570269121
  C   3.04976115749064      0.39291854383686      1.23615707091678
  C   3.57415456118082      1.22688970936855      0.31197823678918
  C   3.51010234161785      2.65387025618818      0.06875718705197
  O   2.93691770366825      3.55127037335923      0.64409478675494
  O   4.27728694784185      2.85644628550187     -1.02673972052187
  N   4.85162945357652      1.63056518714922     -1.52205043896464
  C   4.42706950521229      0.68580209234792     -0.72241872376440
  C   4.69691430328936     -0.70177070027423     -0.75769615629899
  C   4.10880643782241     -1.53947770759141      0.20129599185686
  N   3.30044745532031     -0.91724250002025      1.18981094368321
  N   4.19883164289599     -2.84465330861421      0.40751747606900
  C   4.84181605852481     -3.65888302858022     -0.42512046080771
  C   5.09718500432728     -3.62250887404485     -1.92166388187040
  N   5.25755352690279     -5.03193514478506     -2.32635929003743
  C   5.10447510478090     -5.73022810189452     -1.26351554402761
  N   4.89398066332872     -5.03158149049846     -0.11498584677373
  H   5.34651421471637     -1.11334853101824     -1.51189643763969
  H   2.90572864603340     -1.54690132488293      1.87139590478768
  H   5.99187461998377     -3.05843019887707     -2.21010591066897
  H   4.25904518237696     -3.15638538466810     -2.46225466776145
  H   5.16544704084466     -6.81223640797386     -1.24025684476003
  H   4.56382072742138     -5.40285065262712      0.75764062329609
