18
Coordinates from ORCA-job 10744opt
  Br  1.11507242434663      0.21102232547325      0.14240924993088
  C   2.93124428121449     -0.04311608509656     -0.42584792436891
  C   3.62242410857478     -1.23745497731174     -0.14824946915458
  C   3.24626046729069     -2.63509181120491     -0.13298494133471
  O   2.21191661574650     -3.20650249159617     -0.28612787084804
  O   4.41334226835868     -3.37625014488337      0.14791087495080
  C   5.51351451579918     -2.52843222368967      0.20885835104042
  O   6.36757272811650     -2.80690542067895     -0.92582921904042
  C   7.17555108032300     -3.83993104338436     -0.79637485694940
  O   7.34982315589537     -4.52945213954958      0.16085371829572
  C   7.91468745051613     -4.07506362273001     -2.05855812345144
  N   8.50873694470391     -4.31409885628714     -3.00696294292460
  C   4.97508124225895     -1.13199447585843      0.07074976406259
  N   5.71698008740603     -0.04688169612766      0.15708048171571
  C   5.05202275899493      1.12760507224445     -0.01717745347116
  O   5.51508148944983      2.22859896142164      0.07700351287438
  O   3.66883321302294      1.09653380517690     -0.36803782762230
  H   6.08685516798111     -2.70958517591760      1.11528467629510
