21
Coordinates from ORCA-job 10743optt
  Br  0.96405899667826      0.21792553960009     -0.60611575254475
  C   2.70986771215613      0.02550513768963      0.32989677579199
  C   3.45087957568465     -1.17114460294543      0.17324362793658
  C   3.08537831489378     -2.56721948671683      0.24140725961495
  O   2.04865222155763     -3.13559248249400      0.39216190106373
  O   4.27114132643959     -3.31648512886370      0.09992200161366
  C   5.36275651773965     -2.47555810575189     -0.07254968468849
  O   5.97081459587924     -2.68002799343122     -1.33781173361835
  C   6.36479464597476     -3.94937619382438     -1.60529386519661
  N   6.90068531775253     -4.29595879602808     -2.68585234088601
  C   6.42448094349553     -2.66701578265641      1.01323590178717
  O   6.27469430360522     -3.33039708493584      1.99508090748199
  C   4.81346433672428     -1.06206613753057     -0.01329140232479
  N   5.57673835554122      0.00096178460001     -0.09712170784895
  C   4.90568948968958      1.19740808707771      0.03072539034354
  O   5.43455616232365      2.29105679294770     -0.01514634254505
  N   3.51263366468157      1.14504516008790      0.25742925143193
  H   6.17631333056174     -4.66899714841244     -0.80950826726978
  H   6.98063733704625     -3.49279669092875     -3.31132653200299
  H   7.35026518669530     -2.10274016475762      0.80324483550663
  H   3.09349766487931      2.05447329727417      0.37766977635361
