19
Coordinates from ORCA-job 10751optt
  Br  1.44440199407714     -0.13883187772618     -1.47951215653759
  C   2.84088196321564     -0.09388896638568     -0.05939378150971
  C   3.59185147672037     -1.26292037948139      0.13589061324871
  C   3.27479798106881     -2.65141560856738      0.30827153001482
  O   2.25100154276778     -3.29357959807609      0.36318220975359
  O   4.51301734467037     -3.28008945511556      0.43609684093899
  N   5.57337419274498     -2.37822432528674      0.32070672614050
  C   4.99744777962313     -1.22258342447692      0.15158747478959
  C   5.64979914439149      0.04300426896359     -0.08429095034298
  N   4.98389428030196      1.13085935844865     -0.18260920963204
  N   3.61725236438236      1.08170276859594     -0.05244857733314
  C   3.03677194810206      2.32647608413664      0.06851991349380
  N   1.80084172139534      2.53619374075287      0.38861482785913
  C   1.53750965746015      3.88005939804702      0.39235718924088
  C   2.57259556173897      4.69686457177686      0.08527317068713
  S   3.98140125729440      3.75824269288511     -0.23642782493251
  H   6.72520338597873      0.12254560841973     -0.18798852321142
  H   0.54055853751190      4.21272187442603      0.64370395749837
  H   2.58939786655436      5.77286326866346      0.04546656983387
