23
Coordinates from ORCA-job 10757optt
  Br  5.13262649815378      3.02447907757069     -1.13727683701649
  C   4.70805277065633      1.44844513492635     -0.11818900258118
  C   3.37868568474636      1.02933869144840      0.02205007838228
  C   2.15770181833851      1.77393635861881      0.08052376715137
  O   1.88303913785204      2.95242902801584     -0.00241816032375
  O   1.15795689281980      0.82477745023404      0.26713048033125
  N   1.68534853649964     -0.46257462689938      0.33551837909840
  C   2.96721098300307     -0.32096554376576      0.18683208411231
  N   3.80004873814434     -1.43975145864232      0.19539746305986
  C   5.04338591498185     -1.28066224585013     -0.00793261900531
  S   5.93692522616964      0.20165658653039     -0.28543372890084
  C   5.94598761818256     -2.49564816132356      0.06054340851558
  C   6.46118058186876     -2.75608887265228      1.48851896410574
  C   6.65440017589694     -4.25943296572868      1.50717257249826
  O   7.33457970286188     -4.89662771440956      2.26434617140453
  C   5.84800648339256     -4.83207919599551      0.34367653435197
  N   5.22327602971042     -3.70872172199405     -0.33287186794641
  H   6.79674742683290     -2.34562474635837     -0.61160492869627
  H   5.66833718804983     -2.51296244948187      2.20398313979243
  H   7.36595304242393     -2.22291564982000      1.77159615710794
  H   5.12270457968627     -5.55966670045929      0.70942504587467
  H   6.54587735461524     -5.36664060147426     -0.31033643667931
  H   4.25296761511325     -3.58369967248947     -0.06065066463705
