18
Coordinates from ORCA-job 10763optt
  Br  0.90961638543581      0.07978037028222      0.13501522615847
  C   2.77236153175031     -0.17273202603956      0.08058069478653
  C   3.31962894349789     -1.44904037996036      0.11559350631466
  C   2.82584645587882     -2.82838142905415      0.18478778957234
  O   1.71502722080105     -3.26786930674663      0.23736546528910
  S   4.31225469761937     -3.99574258529381      0.18036716009704
  C   5.42878846508267     -2.64368553102740      0.09161249617724
  C   4.71205524825070     -1.48838959661621      0.07133557865433
  N   5.59899501156587     -0.48782926886103      0.00080191541497
  N   6.85771717416764     -1.00618179490076     -0.02275455526752
  N   6.73411176122424     -2.31525289221308      0.03254948251317
  C   5.06703076508297      0.78714446405448     -0.03492712155704
  C   3.64202461256754      0.91811754122430      0.00311183325818
  C   3.43966067562481      2.38129443424106     -0.05600466666675
  O   2.38645483724593      3.02806098935676     -0.05633222066478
  C   4.80127261191443      2.89137879717282     -0.11686544020916
  N   5.74042949647265      1.93706535564326     -0.10302090346352
  H   5.06172410581723      3.93926285873808     -0.16921624040726
