21
Coordinates from ORCA-job 10767optt
  Br  1.03986628730790      0.11902372867142      0.28642941423888
  C   2.91826572320697      0.02229087810507      0.01432113781640
  C   3.67447031869971      1.22680240660639     -0.01319075133490
  C   3.20713317798033      2.57375740709633     -0.06251273336331
  O   2.08114929026225      3.05240504635149     -0.10374086992690
  S   4.67773768055382      3.66873193060789     -0.07090864539819
  C   5.78188898188896      2.32062086320014     -0.02961168869598
  C   5.11290006773411      1.14527851519617     -0.00460238504676
  N   5.69844999959521     -0.11704955563508      0.03595301796949
  C   4.94671623715224     -1.27045598136035     -0.00298446712056
  C   3.56914171434394     -1.23351528923519      0.01194573759130
  C   2.88870334658110     -2.53346655633358     -0.00352183639779
  N   3.41928616264066     -3.60978726767466      0.57764024425786
  N   2.57868144205196     -4.58195714316849      0.28454610577880
  N   1.52794077789604     -4.24915155527635     -0.43397633955573
  C   1.69470072630326     -2.95168278601721     -0.63445581887900
  H   6.85166989194619      2.45548789318156     -0.01095479144170
  H   6.69427587715166     -0.17915647819874     -0.07135384657796
  H   5.48727230540548     -2.20318702584005     -0.03811634385730
  H   2.72320948550478     -5.52113517073743      0.60970666554646
  H   0.98654050579339     -2.37585385953930     -1.20161180560310
