20
Coordinates from ORCA-job 10764optt
  Br  1.47235851059720     -0.78862016010605      0.14793692600568
  C   3.30424801986023     -0.36370376513405      0.13175514357300
  C   3.80206453731039      0.89598272009656      0.19540295450766
  C   3.05209413460468      2.14790666931584      0.28036932255388
  O   1.85889907289074      2.33523113680965      0.34635091332090
  S   4.26029256664919      3.47508325853350      0.28048138791223
  C   5.61165963064981      2.38117928749524      0.15836767297670
  C   5.24153677284669      1.07564910329438      0.13122263351588
  C   6.12850501475052     -0.06025477488898     -0.00223930233472
  N   7.41539850119496      0.20164628702904     -0.26734403076959
  C   8.32305894003357     -0.74609654592674     -0.56002804674740
  N   8.39865894419744     -2.02369847570178     -0.35277637704880
  C   7.44153605538262     -2.71095308102962      0.39196457790593
  O   7.78355192203507     -3.53390591286159      1.21087532119283
  N   6.07585394141690     -2.54882611943324      0.12281838481165
  C   5.53906692013247     -1.36602459811842      0.05382994896191
  N   4.12743545469843     -1.42142764813787      0.04639994528816
  H   6.62397450385174      2.74324939342442      0.09408705272797
  H   9.19773095354222     -0.32765238020886     -1.06130958646421
  H   3.75907560335508     -2.36076439445143      0.08683515811034
