22
Coordinates from ORCA-job 10769optt
  Br  1.10070166152525     -0.40353325229385      0.44768279813340
  C   2.96821143330451     -0.21990278314354      0.26933137906252
  C   3.59782192005961      1.04324890868168      0.13886824870330
  C   2.99798904192757      2.33604437409467      0.14298271489137
  O   1.83055113012026      2.69219693676824      0.24178915315077
  S   4.34200528569226      3.55628008569765     -0.03587670789019
  C   5.57293044979140      2.32314925962208     -0.10605079544129
  C   5.03338609353133      1.08857740421599     -0.00443063616454
  N   5.75352509076717     -0.10771199674109     -0.05361901106785
  C   5.12490101600380     -1.31205757590470      0.15732304367720
  N   5.87806328098727     -2.47971183816170      0.12990262565801
  C   7.22206788038975     -2.62814262743393      0.11550089626051
  O   8.05280770632215     -1.72980087050531      0.13819634728099
  C   3.74996158650390     -1.36912959408129      0.28848427213692
  O   3.17675403432793     -2.64595106587648      0.35266488633860
  C   2.78221311548257     -3.09650754874456      1.55754914933235
  O   3.00623249271213     -2.60066341579667      2.61415983765187
  H   6.61569814083921      2.56534341794726     -0.22980350239864
  H   6.76136964749495     -0.10144694543066      0.00299927969894
  H   5.32949996929281     -3.32523987652941      0.12281468943587
  H   7.50812668380763     -3.69001343514346      0.08249309961283
  H   2.22818233911647     -4.03302756124091      1.41003823193704
