24
Coordinates from ORCA-job 10774optt
  Br  0.79248213114995     -0.28528546945548     -0.81800467965314
  C   2.86855465274155      0.03830885417945      0.30619898336357
  C   3.64901104022990      1.16269793980419      0.32509829208720
  C   3.20451227353275      2.51431657853314      0.59257598184662
  O   2.11972062771621      2.96381694358504      0.86422962038440
  S   4.68690470228031      3.57792865396614      0.44556962245759
  C   5.75990857054186      2.23355889509519      0.08892235497546
  C   7.22425893935465      2.42382550346829     -0.13975967530617
  C   7.55664990339968      3.20561372151860     -1.38082253570318
  C   6.69446862476489      3.62313354988055     -2.36556579297253
  N   7.44239762544122      4.26652509636791     -3.28981461208292
  N   8.74100033671982      4.30492422448292     -2.98047731808328
  C   8.81686268217416      3.66497023552947     -1.82351676326114
  C   5.08096907231940      1.06563134234617      0.06194633412891
  N   5.66891243530238     -0.17939269474646     -0.17874125852733
  C   4.88188649036924     -1.18466584126234     -0.16615757640358
  N   3.53093593509839     -1.13390115191633      0.07088131976893
  H   7.66742765528848      1.42729187385328     -0.20667954904609
  H   7.68526472813306      2.92029441126487      0.72167308977172
  H   5.62666234257618      3.51204856646921     -2.45578358675076
  H   7.12529350000722      4.70447588968035     -4.13569962453202
  H   9.77602605257942      3.54918457588717     -1.34186615385195
  H   5.27933740363516     -2.18043772186489     -0.34397250905864
  H   2.96955227464369     -1.96186397666658     -0.06023396355157
