19
Coordinates from ORCA-job 10773optt
  Br  1.22488668947359     -0.24881634614270      1.01946138062753
  C   2.90431111980175     -0.16546442476081      0.10568319619159
  C   3.72569266889460     -1.29684216644293     -0.04103389593911
  C   3.21844482837962     -2.63769491167614     -0.26242510348900
  O   2.07351897356646     -3.03583859385071     -0.34403059398874
  S   4.62269760620156     -3.74708336906308     -0.44370577925726
  C   5.77766473702056     -2.45032487895372     -0.26450579910243
  C   7.17563697620107     -2.70451644729074     -0.34229538049267
  N   8.14483108055315     -1.86187337846734     -0.44742174935728
  S   9.60332218307840     -2.68977435679842     -0.46552453604001
  C   8.83579936669130     -4.27316558697986     -0.37582415308978
  N   9.29981777491990     -5.44514359573870     -0.35720112539935
  O   7.50154493144743     -4.05138876178790     -0.31404916386355
  C   5.14514235575187     -1.23893684044253     -0.04286118125954
  N   5.88056829710770     -0.08738643739141      0.23385289513851
  C   5.31185950269980      1.04005397049235      0.30789652324993
  S   3.61263208900511      1.42799906377103      0.09617116545719
  H   10.31312654392832     -5.43040558343198     -0.41086247274491
  H   5.91450227527770      1.92060264495563      0.52567577335891
