20
Coordinates from ORCA-job 10777optt
  Br  1.55758359421610     -0.88168125046210     -0.15134564022595
  C   3.29681802421590     -0.16422010992121     -0.14725870958612
  C   3.59944154843406      1.18504788084829      0.04173698800898
  C   2.70238273705421      2.25564759745484      0.25809539333405
  O   1.49021052142401      2.34257369495308      0.33373823439643
  S   3.73402178083288      3.82104007674830      0.44270769393941
  C   5.19862840502801      2.92557705075642      0.21206497014752
  N   6.47045690964391      3.46665020137853      0.30702741480137
  C   6.81257040091023      4.76633582707663      0.09932003855800
  C   6.17894613611111      5.92780402020392     -0.22110676016627
  N   7.12686920623576      6.94672884847320     -0.24039097424635
  C   8.23509393894014      6.37979252550821      0.04719007453599
  O   8.13178543848740      5.04427377778298      0.27527990132842
  C   4.99294661932178      1.59600795627439      0.01752856190162
  N   6.10127982601752      0.77949544791529     -0.15488302542663
  N   6.01574527119139     -0.46339315223548     -0.33455041093231
  S   4.55767879435146     -1.31500108430268     -0.38890991697380
  H   7.20514437479779      2.77416087169794      0.22337977377326
  H   5.14022911588273      6.09503230347687     -0.43435262613409
  H   9.21916735690353      6.80912751637251      0.12572901896646
