18
Coordinates from ORCA-job 10780optt
  Br  2.16242027439384     -1.04667129535772     -0.75065263433559
  C   3.42235490568961      0.40403085800929     -0.85906640602947
  C   3.45470896039672      1.42092911735193      0.11218185696259
  C   2.32830648414560      1.98021625770711      0.77709427911235
  O   1.13761873428914      1.75505107595712      0.72264789912774
  S   2.97347050961891      3.31403492444957      1.92769073639385
  C   4.58929855083600      2.99052543380225      1.43755288881235
  O   5.65626886856602      3.65686756219959      2.02712074338184
  C   6.44140387855983      4.35659822635268      1.23785270318760
  N   6.25728898588672      4.79568907367428      0.03436220475525
  C   7.42617084237451      5.46777504052103     -0.17006837546505
  N   8.26551512114445      5.45969611908388      0.81712733087477
  O   7.60077477123287      4.70355485525359      1.78102224284165
  C   4.70896176248704      2.00795636432511      0.51923528063140
  N   5.98998232095762      1.62801070585912      0.09675093952823
  N   6.17591775028196      0.78799226625671     -0.79159885864939
  S   4.90276127208642      0.00588895922816     -1.65675776276823
  H   7.65977600705255      5.98285445532623     -1.08849506836192
