20
Coordinates from ORCA-job 10785optt
  Br  1.17810909682709     -0.33953897634608     -1.15975569373214
  C   2.87641738877764     -0.08108320714506      0.15348375077203
  C   3.61013005925132      1.10595026897481      0.09038125050169
  C   3.08409157378450      2.44882795078303      0.15649933074474
  O   1.95321645948670      2.87112530090967      0.27822866337170
  S   4.55282906232479      3.49382768944347      0.01946550249555
  N   5.67648524776141      2.24636698855137     -0.09180651584821
  C   5.03865118682291      1.10636721583298     -0.03985082039075
  C   5.71846151566043     -0.16668424935402     -0.09454126688957
  C   4.95993630721994     -1.27276781765123      0.00601402967034
  N   3.59896868798267     -1.25185193336846      0.15292665082658
  N   5.52958294435983     -2.57771972921001     -0.01952770847618
  N   6.85445901296418     -2.74591036635859     -0.24120959660749
  N   7.12132854635245     -3.97149351638575     -0.22195010640169
  N   5.97895056844987     -4.64159968343488      0.01591636637854
  C   4.90397733056784     -3.79811807652402      0.15352245229119
  O   3.74453714557202     -4.07460034406645      0.36853482704239
  H   6.78918441954797     -0.22330005346895     -0.20433733288681
  H   3.09820639532826     -2.12962542385839      0.20211081005224
  H   5.96247705095802     -5.64517203732338      0.05989540708583
