17
Coordinates from ORCA-job 10789optt
  Br  1.28192988638783     -0.25864378804837      1.23326435855210
  C   3.02960928740269     -0.19338849080021      0.51687222931955
  C   3.58057514622373      1.01580618299335      0.05041590712766
  C   3.05837573679261      2.34777848142308     -0.02306944338167
  O   1.98980128505159      2.82603231676473      0.30747938688651
  S   4.40039298881020      3.30637285944135     -0.78007986514090
  N   5.47628336688080      2.01422440261902     -0.94747223750455
  C   4.90188704278287      0.96792508280040     -0.48261852815608
  O   5.58533275602233     -0.22653491275702     -0.51153130576974
  C   4.90357249457582     -1.30878165712994     -0.02941377909574
  N   3.70125192957193     -1.32958289627568      0.46434083268487
  N   5.65934102703347     -2.49102395317607     -0.13724394686388
  N   5.53337316110790     -3.27881631811591     -1.23440417193727
  N   6.22228987777061     -4.31096227817056     -1.21749670481868
  S   7.16748431454470     -4.45515384220356      0.19933281573039
  C   6.54854852232186     -2.92739868538758      0.84088442766669
  O   6.81795117671895     -2.38385250397704      1.87174002470073
