23
Coordinates from ORCA-job 10788optt
  Br  1.07692594800558     -1.10880455069176      0.37903343944022
  C   2.99652774802601     -0.03310133425383     -0.64669299953500
  C   3.63267324374094      1.08171479383288     -0.18347167996473
  C   3.10363397284736      2.42294816258246      0.00306725557101
  O   1.98973851770693      2.87226803262105     -0.12648549733921
  S   4.55382316765223      3.38811502957971      0.46599453831283
  N   5.66162276783943      2.11567337859205      0.45053192204820
  C   5.05474253901217      1.02146360507991      0.11052981770113
  N   5.71437321553465     -0.19783098014156      0.10310201855444
  C   5.05155629829635     -1.20290915109770     -0.34544547798458
  N   5.61385352577318     -2.46336787019602     -0.32116785048845
  C   4.87365205073932     -3.65028248127601     -0.21844689202938
  C   5.22056018849038     -4.91101087347810     -0.63717623183913
  C   4.17139561528585     -5.78499676633204     -0.24589063470344
  C   3.21577135319058     -5.02369270594922      0.37327925839549
  N   3.65618808794445     -3.73005574325073      0.40836349416343
  N   3.77822463950339     -1.12859822708355     -0.85430774121576
  H   6.52878843136161     -2.45631366929515      0.10411276093776
  H   6.12547765455693     -5.16040475758402     -1.16579067950859
  H   4.11554814661906     -6.84618104653185     -0.42192431288785
  H   2.24795668105792     -5.28041423735823      0.76745514593353
  H   3.09935276331198     -2.95105809374134      0.75068161388678
  H   3.32561344350347     -1.97016051402687     -1.18035126744869
