20
Coordinates from ORCA-job 10797optt
  Br  1.17802258825134      0.13062300633677      0.67302785025501
  C   2.98831221029275      0.09491843040963      0.12342141720915
  C   3.75153427405360     -1.09064519730996      0.16554904017378
  C   5.15716595531831     -0.92925756138821     -0.12272514021746
  S   6.03094957955491     -2.44283136577019     -0.03557786173396
  C   4.57314808016695     -3.28101845737110      0.44432348996010
  C   3.47011160774228     -2.44171050640125      0.45756096098179
  S   1.86568020376706     -3.13253140163608      0.68448110181526
  C   1.98840850550049     -4.71586006525690     -0.09790310187943
  N   0.98380785869791     -5.24701947434807     -0.65755555186751
  C   3.22232876938503     -5.60075645037881      0.04317125476446
  N   3.21039733029299     -6.81960926942340     -0.27853945286354
  S   4.64145237567951     -4.95502816517238      0.87149197738368
  C   5.66878594241604      0.27095536424639     -0.45068187388484
  O   4.89994051564530      1.38683777062088     -0.51949143151848
  C   3.53204789778165      1.36340746561767     -0.20188801104221
  O   2.97397247284606      2.43943695890633     -0.24099892235365
  H   0.19729699322976     -4.60108799366777     -0.70479382571770
  H   2.28173802989215     -7.04663575076634     -0.64721043299283
  H   6.70389880948573      0.45981266275291     -0.69366148647160
