19
Coordinates from ORCA-job 10791optt
  Br  1.10113726305406      0.17267411185980      0.01281141027301
  C   3.00986779094232      0.10150973983073     -0.01469373062634
  C   3.61556369008818     -1.12798650225178     -0.03633236375628
  C   2.86766027798808     -2.42220645539427      0.09614842255033
  O   3.70317444692152     -3.56215626239956     -0.25296278447357
  S   5.06738685660693     -3.64213995964397      0.51846406112768
  O   4.80346501937326     -3.48124524249964      1.91520229635124
  O   5.75788600447159     -4.80471608335763      0.07448145731591
  N   5.77704401546624     -2.32715740516191     -0.15110605947234
  C   5.05578521656574     -1.09364212142834     -0.00162718923459
  C   5.70409088856583      0.11364780644870      0.08429394242579
  N   5.12206961934071      1.30888229013827      0.10815155807590
  C   3.72888859283811      1.30745641762101      0.03659751845594
  C   3.07977950181387      2.56269189033587      0.04228021565641
  N   2.56626483472770      3.60048494348341      0.05573922560341
  H   2.02613513742559     -2.48281350074727     -0.58941763676619
  H   2.50927857126044     -2.58877962797466      1.11595926561789
  H   6.76087156192802     -2.26958190591006      0.08464480296485
  H   6.79365071062176      0.11607786705132      0.12536558791094
