21
Coordinates from ORCA-job 10794optt
  Br  0.27610346198067     -0.15894047095737     -0.05086926845260
  C   2.86480376985653     -0.08309184230177     -0.00833777946776
  C   3.47621130180157     -1.30715316125947      0.00781511760993
  C   4.90387424716044     -1.29236123155484      0.03034367209893
  S   5.57575360054645     -2.93378702992571      0.05012870381767
  C   3.96651812071602     -3.62497126333345      0.02835929347040
  C   2.98537254549737     -2.64794387616266      0.00629330962014
  N   1.77681497710047     -3.24745377224954     -0.01109392177694
  C   1.96221394629370     -4.61523052624027     -0.00068090656629
  C   3.32691916065454     -4.87709501783679      0.02467888288050
  C   0.88397073160940     -5.52764677527913     -0.01939019668975
  C   -0.02694319799430     -6.31288165029538     -0.03625010149921
  N   5.66760616199246     -0.24020992566831      0.03685481011680
  C   5.05418726806806      0.99165838778239      0.02150534045206
  N   5.63320607138097      2.13512275066261      0.02634852884372
  N   3.63820938198103      0.99609566649515     -0.00184253317174
  H   0.90074461978760     -2.73622848895499     -0.02992011393751
  H   3.76279673470067     -5.86148049522076      0.03795233728045
  H   -0.83817838819599     -6.99841341238793     -0.05240318980886
  H   6.63697340704502      1.98199425555077      0.04351763351635
  H   3.22084207801721      1.91701787913755     -0.01300961833629
