17
Coordinates from ORCA-job 1079optt
  C   2.23454015527086     -1.15500246772427     -0.11419640044051
  N   3.50607504285696     -0.61485333889482      0.31387168140858
  N   3.61905434644882      0.72709751365892     -0.16080459036945
  C   4.80589546893412      1.25102084877864      0.16592260580021
  C   5.15819261542749      2.58906404710715     -0.05866964440481
  C   6.38793866290748      3.19456289488348      0.14909732857667
  C   6.60252933690243      4.66946496863469      0.00415462619034
  H   2.08788867900183     -2.14248483151778      0.33287468851265
  H   2.24454090909751     -1.26170883964441     -1.20090535422926
  H   1.38278214896820     -0.50741593904033      0.14473592538001
  H   3.51067630370061     -0.59326520188496      1.33628441295264
  H   5.56029414029628      0.58955058284070      0.60764875209206
  H   4.36040550464129      3.21039571185367     -0.46902658593746
  H   7.20373418114534      2.60991320478536      0.56775062009255
  H   5.79465271244531      5.11279719267348     -0.58634094707877
  H   7.54309644681681      4.91784745925280     -0.50414541457300
  H   6.62270334513857      5.22001619423766      0.96174829602753
