21
Coordinates from ORCA-job 10803optt
  Br  1.13196890073083     -0.02333394272439      0.98209250436177
  C   2.91579237440867     -0.11079266686922      0.32555348868259
  C   3.55372415624296     -1.37910826493861      0.17877255741969
  C   4.98650382914135     -1.48534612205108      0.13650136961484
  S   6.03899568713142     -0.07373708849417      0.10592043133542
  C   4.92204792540091      1.22998809582035     -0.01560766002957
  C   3.57132438726151      1.12505353744612      0.15539283000590
  C   2.79765008443423      2.43174586967220      0.13969085793427
  C   2.60322904772426      3.01028517313912      1.47256748770515
  N   2.46891360397453      3.50181913386601      2.49966234646394
  C   5.61111826728219     -2.69054110233726      0.12520434680462
  C   4.86604925274157     -3.93241278124208      0.17479758469059
  O   5.41748778371897     -5.02405789204075      0.29464584384942
  N   3.49299108667073     -3.82796449129536      0.03562656365087
  C   2.91841357763063     -2.64457195556282      0.03744846071041
  C   1.49869677563572     -2.74974108258115     -0.27049582622476
  N   0.40721603599894     -2.91257957145914     -0.58626595208957
  H   5.38842591645461      2.19102990862471     -0.18393526752883
  H   1.81780375138866      2.30639711286811     -0.31954142337633
  H   3.35214296825571      3.16331665047588     -0.44937569861023
  H   6.69150458777154     -2.76044852031646      0.09934515462980
