23
Coordinates from ORCA-job 10808optt
  Br  1.41333413199704     -2.16857036856894      1.23270789425486
  C   3.14181572258657     -1.47874624778269      0.78510160243824
  C   3.98246269730551     -2.23081793000737     -0.09000171255352
  C   5.17116429581782     -1.72790249113567     -0.64465610022426
  S   5.67487608595735     -0.04405457735350     -0.25577239283916
  C   4.49954779769231      0.52480904489341      0.88151936605956
  C   3.39667099541451     -0.18831590108748      1.24683988806276
  N   6.07306767087396     -2.20763877940884     -1.47756435560631
  C   6.48836032379688     -3.48399038632663     -1.66991651455411
  O   7.10010840293922     -3.85259939822888     -2.66289873257274
  C   6.12468245097708     -4.44384996587307     -0.58090851521975
  C   5.64369207764518     -5.64733298859381     -0.88189750505543
  C   4.73327692324676     -6.37799418040756      0.00166058523868
  C   3.75035223626718     -5.76681072223305      0.66380310655566
  O   3.56562393940269     -4.41037283587582      0.72160806988623
  C   3.56539248062630     -3.62454164697904     -0.42037231946359
  O   3.24775935343380     -4.04746618614199     -1.48728851675093
  H   4.69348463805386      1.51197336495834      1.27678626525688
  H   2.68180984831459      0.26686050951828      1.92007746848280
  H   6.00337784118255     -4.04164889577247      0.41896542441129
  H   5.76152055028884     -6.00732335203853     -1.90034656252904
  H   4.74674112847731     -7.46107113581591      0.04128271725273
  H   3.03287840770265     -6.30559492973876      1.27027083946912
