21
Coordinates from ORCA-job 10801optt
  Br  0.79637193614967      0.44455751561632     -0.40120583329454
  C   2.64561925488109      0.20061925727278     -0.03065593744855
  C   3.26105555549426      0.72828917419038      1.13645516133248
  C   4.58316909211384      0.41048192990827      1.51157055906818
  S   5.47145519599700     -0.88477540997713      0.67773892031649
  C   4.58541218838156     -1.05943229154141     -0.80169239278187
  C   3.32473326255652     -0.57749150580480     -0.97780742168188
  C   5.32399781272160      1.01208509849506      2.51439520773164
  C   4.82850366420080      2.12028919913051      3.22179312859908
  C   3.56643773886350      2.57763698415221      3.08917606656861
  O   3.10271604208146      3.73479702736832      3.71755922871116
  C   3.33342435575081      4.91465506257772      3.11794912392694
  O   4.02214017389032      5.12136560310157      2.17008103398782
  S   2.31546580575273      1.75100158950700      2.21129172784218
  O   1.56584072976222      2.75992986646438      1.49284233502842
  O   1.53853062539715      0.90859511623629      3.09543578093208
  H   5.09161979530818     -1.62579034390408     -1.57011755444581
  H   2.81048017482998     -0.80987326569241     -1.90185421653354
  H   6.33917456430012      0.68502470695680      2.68704711058675
  H   5.49410840990063      2.68105599547886      3.87009505074287
  H   2.79374362166648      5.69197869046331      3.67490292081147
