22
Coordinates from ORCA-job 10800optt
  Br  1.89718234890318      0.73205748625268      0.98522359743653
  C   3.61076319284530      0.45881326649141      0.19398768505538
  C   4.36064534922145      1.56286330438853     -0.30889668036083
  C   5.56654260993273      1.41768404494047     -0.95840235314259
  S   6.38426099143999     -0.11177100303139     -1.13310180060724
  C   5.36917991084509     -1.20215437018727     -0.19876084136717
  C   4.11121158982376     -0.82499074652574      0.25771560900590
  C   5.87348173948603     -2.49969302528416     -0.01041198847849
  C   6.33820417594816     -3.60491917716931      0.13576737876165
  C   6.28756168897263      2.58521386890828     -1.39405184452204
  C   7.07079076883307      2.98713212157675     -0.22224659532144
  N   8.21820246159169      2.62961930790817      0.18865193813796
  C   6.25402035893569      3.79698482262606      0.80617361314449
  O   6.72140277994954      4.46404305968683      1.67225072517369
  O   4.87733475931813      3.75465592185636      0.72452816411423
  C   4.00747300924262      2.98929123186719     -0.03744431729198
  N   2.93963089315428      3.57870313690871     -0.35417079151314
  H   3.51181926444991     -1.59298777013690      0.72917127250845
  H   6.74950458255520     -4.57369056257344      0.27892297023569
  H   5.57521098732196      3.36624738195145     -1.65419249233986
  H   8.65435234177096      2.07579831654498     -0.55107522033389
  H   2.33622419545854      2.93109938300033     -0.85463802829530
