21
Coordinates from ORCA-job 10805optt
  Br  1.47363150919341     -0.59366890475735     -1.34643647077982
  C   3.15658537094229     -0.27521377516250     -0.51079816834265
  C   3.56988004645904      1.04412298879058     -0.19558967226011
  C   4.90086290045234      1.32410597961795      0.26170644251082
  S   6.11578470291639      0.11927986886527      0.59335869307861
  C   5.27026238844241     -1.32563317484874      0.15543838269868
  C   3.98411907630710     -1.37971667048081     -0.33181357537186
  C   4.99347446766191      2.69460709511358      0.40708236658087
  N   3.81173094664691      3.29628686478129      0.10451853019134
  C   2.97407847729198      2.31707835440134     -0.24283174464112
  N   1.64390109550666      2.62933473156371     -0.62426994512332
  C   0.58085439064422      2.36525970388435      0.17683768723770
  N   0.58489318217544      1.56475962446681      1.23339478402471
  N   -0.68950776886962      1.62568482847596      1.59299838199154
  N   -1.43913233229730      2.38967615574066      0.85244317936521
  N   -0.66079468122640      2.87857623219052     -0.06402972464762
  H   5.85156951995312     -2.22719943235231      0.28334904158358
  H   3.59773671060421     -2.35597955689128     -0.59822820509507
  H   5.85162606831774      3.27080106170782      0.72175473233135
  H   1.54135092523731      3.47320911705109     -1.16608995285679
  H   -1.05590699635922      1.11062890784204      2.37520523752396
