21
Coordinates from ORCA-job 10804optt
  Br  6.26071038486202     -1.75050724463297     -1.54858859716680
  C   5.04273458846383     -0.78598717306648     -0.45784414105541
  C   5.35703935451761      0.52462703562359     -0.06496701897284
  C   4.49052726108325      1.34416417885165      0.74083348910719
  S   3.14080130054658      0.64681989721604      1.61861093714635
  C   2.91040540044219     -0.84445888414690      0.73404038516503
  C   3.84725574228452     -1.41090646705761     -0.09644068901673
  C   4.85443813106649      2.63536319944662      0.83026340102825
  N   6.04943778902188      2.87221473670260      0.11161708562205
  C   6.60188006730727      4.09922629974569     -0.13180921117046
  C   7.72138569238525      4.37145922136373     -0.88239463127839
  S   7.94603126679915      6.03673323533699     -0.84248015261723
  N   6.62203697431067      6.30479232642786      0.11814215638563
  N   6.02122656675655      5.21462929937862      0.40974075142174
  S   6.63340970325696      1.49099127792825     -0.67998634521057
  O   6.59902188437312      1.73046668598876     -2.10485702219578
  O   7.95472686319516      1.20993242875912     -0.17112428025516
  H   1.98009271646660     -1.34333668999264      0.96211071691139
  H   3.63714304628968     -2.39026528857770     -0.50757454750153
  H   4.40866382108898      3.44288552533462      1.38240688974494
  H   8.34303144548199      3.66915639937011     -1.41169917609167
