23
Coordinates from ORCA-job 10810opt
  Br  0.95859455288154     -0.78316471558246      1.56419599861420
  C   3.06200759729001     -0.15828363674054      0.26701021610144
  C   3.68572445579844      1.06015981494505      0.15950212138332
  C   5.10405774848925      1.04339132114221     -0.03604541621630
  S   5.72543499614284      2.67156181937794     -0.10463124725000
  C   4.13094350319623      3.34420984106585      0.14197590418087
  C   3.15570433642121      2.41423257059752      0.25708026096211
  N   1.83621290225726      2.77094041614919      0.51831939170065
  C   0.86568647647639      2.18858688952223     -0.06181768340700
  N   -0.46287964634897      2.47876491930024      0.14468881942384
  N   -1.26582349142762      1.67108868203408     -0.58582323881839
  N   -0.54601048881023      0.94686167636482     -1.30403982705213
  N   0.75874799139258      1.26566261965818     -1.08313211483549
  C   5.83072155495648     -0.10951631672600     -0.13147556569215
  C   5.16848090617239     -1.38018268804130     -0.03306576055674
  N   5.65897580672064     -2.57381557573341     -0.11134351312475
  N   3.78520340044996     -1.27761533341798      0.17848659412930
  H   3.99626858418382      4.41114578038274      0.20598140836063
  H   -0.82907903343093      2.96897564065775      0.94087147502623
  H   1.45082849235564      0.54257783472461     -1.23419082990835
  H   6.90313525393694     -0.09970595098051     -0.27111769275940
  H   6.66110421598091     -2.51979932250250     -0.26421159605973
  H   3.30595988491489     -2.16207628619780      0.29978229579783
