23
Coordinates from ORCA-job 10815optt
  Br  1.02777023984959      0.28949533118161      0.90174879178918
  C   2.92533732751978      0.26891593044094      0.59147791820550
  C   3.53649961933931      1.36670708689037     -0.06233766949241
  C   4.92702735408850      1.33717881153202     -0.39004871551930
  S   5.97924829347746      0.01368610636226      0.02743329731706
  C   4.82027944403456     -1.03336312871375      0.80911530237454
  N   3.53632176489305     -0.82060316593296      0.98068883849512
  C   5.20472717996510      2.51612299305495     -1.05316870439687
  N   4.08991505553617      3.28911659259480     -1.15857877795343
  C   3.10929005217193      2.61069272194417     -0.56574127043194
  N   1.79306055948258      3.12679531070286     -0.51182429296984
  C   0.85133215396048      2.94812286926027     -1.52091451782833
  C   -0.35832446424743      3.39186375556141     -1.17873045673517
  C   -0.26791755635731      3.92555573839098      0.22575120280356
  C   1.20380324777130      3.72704857566867      0.58642837238979
  N   1.82345291702761      4.02255444236786      1.65528139957697
  H   5.24636353744852     -1.95750404792983      1.17726515685622
  H   6.15281287961092      2.84444973853731     -1.45314309865827
  H   1.17999517658791      2.48386113212817     -2.43820991125276
  H   -1.24585594254351      3.36016746327407     -1.78828885307345
  H   -0.88697635602308      3.36556667809621      0.93242852881773
  H   -0.53452131162557      4.98182581121938      0.31327705716518
  H   1.17735882803211      4.44274325336817      2.31809040252093
