21
Coordinates from ORCA-job 10826optt
  Br  0.86494284085915      0.34260406253031     -0.18738430921093
  C   2.74638619188865      0.11708531265707     -0.10055968013643
  C   3.27665383856055     -1.18178328183218      0.00635954975974
  C   4.69146230399399     -1.44206146880936      0.07737094834703
  S   5.92561014113307     -0.19534043334455      0.03818483079996
  C   4.92137408439925      1.22310666671558     -0.10654881277093
  O   5.74464176370607      2.33710209094781     -0.16932419807297
  C   5.09393633212340      3.55983602497304     -0.30908574414694
  C   6.10408791193854      4.61979657957644     -0.41850587593191
  N   6.85102407451102      5.48288258781519     -0.50884426298170
  C   3.55535291555258      1.26093481872595     -0.15524429490116
  N   5.05251279253408     -2.72051956602252      0.18098058354608
  C   3.84687756689516     -3.35500524787583      0.18019645400081
  C   2.77695666309971     -2.49598476647907      0.07919941639478
  O   1.62774060454445     -3.23793611539047      0.08919891007070
  C   2.10117579057152     -4.51537797477600      0.19963516679170
  N   3.38115205550520     -4.65804796679644      0.25752234543169
  H   4.45230935660203      3.77929950723877      0.55304580051177
  H   4.47066406432775      3.58382810148278     -1.21106907143829
  H   3.05421788174997      2.21572296637772     -0.23860229883830
  H   1.35192082550381     -5.28914189771423      0.23247454277531
