20
Coordinates from ORCA-job 10824optt
  Br  1.80459837018924      0.78729947050341      0.74150017513521
  C   3.59644521039944      0.50077628966305      0.25478563737714
  C   4.62443833894532      1.33308148549908      0.49423874188226
  C   5.94611861018877      0.88485843642349      0.09216354919142
  S   6.23710138552277     -0.83649952722900      0.34774913270341
  C   4.78383638970593     -1.47589881131379     -0.42908458114029
  N   4.65578832402379     -2.62017586209970     -0.93707489011282
  O   3.69226884034584     -0.66044838835361     -0.45827916193667
  C   6.92235856977541      1.61479520034593     -0.53347118551643
  N   6.91281921402438      2.91499996956929     -0.84172890381538
  C   6.18393244117208      3.83762051722291     -0.23482508324730
  C   6.28611461440951      5.15733947909898     -0.89987579359953
  O   5.66125270215892      6.15939299706434     -0.65411078604358
  C   5.43460317772201      3.75370644624461      1.02459011007094
  O   5.42994078569846      4.67521838896654      1.82274140088575
  C   4.50740066149859      2.57198533263113      1.31969060287796
  O   3.70313921475591      2.66942132437240      2.21363522205045
  H   5.54302090459809     -3.11374891597000     -0.91266265545693
  H   7.78856534375013      1.06470062715188     -0.89146290107674
  H   7.00225690111531      5.11957554020902     -1.74551863022887
