15
Coordinates from ORCA-job 10823optt
  Br  1.22167863448509     -0.11980824780530     -0.01595793397151
  C   3.07329104041447      0.11289223600642     -0.19629587278247
  C   3.70947928709471      1.34889978247593     -0.06483262813527
  C   5.11932363433706      1.45438866350010     -0.03815422988628
  S   6.16555523800101      0.07765875907045     -0.26387794216791
  C   5.05837312863097     -1.26910941785333      0.04806849695730
  N   5.46211066423597     -2.45648257577216      0.21682897479458
  O   3.72548568737704     -1.07656929081867      0.06485836271885
  C   5.42595958381444      2.80290442057558      0.08304156256873
  N   4.30942102916531      3.55608426832063      0.13163230525185
  C   3.26951345332662      2.69961743950719      0.04408753832070
  C   1.93401243056739      3.18240460357352      0.08893354825193
  N   0.85744892624418      3.59203866246962      0.12433344239842
  H   6.47716004750879     -2.48432395752660      0.22482532326779
  H   6.40718721479689      3.25240465427662      0.13150905241330
