20
Coordinates from ORCA-job 10828optt
  Br  1.70808894505014      1.23167171131061      1.02151204740433
  C   3.33518200277167      0.74878916610620      0.20075379747347
  C   4.29002879605550      1.56852544270356     -0.24696476161038
  C   5.60110759408058      0.96135903836976     -0.52336412082708
  S   6.13060876859876     -0.26411315681136      0.63982224261921
  C   4.63315944884988     -1.18738583310729      0.72962322899870
  O   4.58383298964194     -2.29134249541994      1.17108178509669
  O   3.49152540839636     -0.61246514963993      0.22950591726151
  C   6.46232591394369      1.71074734087042     -1.21295106909985
  C   7.63326451103296      2.29572233605206     -0.46807892301828
  O   8.80525600136228      1.97560918348983     -0.46296379837390
  C   6.98668308863999      3.37437903988668      0.27994923234437
  C   5.60208162967106      3.68640971898806      0.31590545832956
  C   4.36057235545923      3.06268544276979     -0.09369174436624
  N   3.31063372879626      3.83750974548845     -0.20143195634720
  C   7.86833043643132      4.27401942766553      0.95152913539443
  N   8.56815844468703      5.01508729063022      1.48884548223884
  H   5.99074222717444      2.44245369287893     -1.86300355599295
  H   5.38771665017324      4.66736006986777      0.72750720666492
  H   2.49570105918361      3.30097798790060     -0.48358560419016
