23
Coordinates from ORCA-job 10821optt
  Br  1.08744066990467     -0.01702756788291      0.41707415348227
  C   3.01879750607386      0.24665548387721      0.67650396624666
  C   3.63755727027415      1.33562941237191      0.03870321023661
  C   4.96675112765798      1.32500570270580     -0.41926098718663
  S   6.02254640687425     -0.07654274730604     -0.34405725790127
  C   4.97873871509467     -1.29267816339831      0.39610293485320
  N   5.38915807815656     -2.48330656632508      0.63380956417968
  N   3.70023010412699     -0.96043005434283      0.76474757548099
  N   5.36796781773458      2.47620676605470     -0.94931560414312
  C   4.28158428865324      3.29569887585608     -0.85569490691276
  C   3.20698537514338      2.65788829350418     -0.26796715476577
  N   1.90469609340544      3.17916085398849     -0.09232295155096
  C   0.95418349752321      3.29233484992955     -1.09878947428970
  C   -0.18721651023809      3.68072166024222     -0.53682077530321
  O   0.00234008809637      3.81071925157122      0.82377006412556
  C   1.30891822923045      3.48311622494697      1.11050338925826
  N   1.83496345634197      3.48304740406003      2.26151182298888
  H   6.35267754747747     -2.59970290839630      0.33739792027998
  H   3.23679543060764     -1.71599696216776      1.25014610794890
  H   4.31569828339772      4.31520273573357     -1.21319022354339
  H   1.20221439163032      3.06442839384603     -2.11934859484645
  H   -1.16695418056677      3.88996876937850     -0.92227293106645
  H   1.13992631339989      3.73590029175274      2.95577015242872
