22
Coordinates from ORCA-job 10829optt
  Br  1.22804534635832     -0.40747761322636     -0.35407311602472
  C   3.05725228505099     -0.02700307413288     -0.18293702896822
  C   3.66024203197390      1.17115494660185      0.03199669879558
  C   5.10831974350656      1.15049662099178      0.16378650131549
  S   5.90959927078286     -0.28817800518092      0.77781780131936
  C   4.96048801331923     -1.54616456888355     -0.02074097216520
  O   5.36508690485416     -2.66649298936392     -0.13483577651179
  O   3.75792270737128     -1.19710567129503     -0.49385815013093
  C   5.84219063415308      2.26493029628704     -0.01814141572480
  N   5.21051585608273      3.45021855685438     -0.24968450869911
  C   3.83365816535159      3.65733734578061     -0.12867562641006
  O   3.42003117999185      4.81327451748980     -0.28382159986796
  C   3.00963928068950      2.48296396518261      0.15674956260969
  N   1.73533562055216      2.52977046028840      0.46610332913835
  C   1.03556816833859      3.77351824854657      0.60623048288685
  C   -0.36627478052138      3.47793673014914      1.07801545686294
  O   -1.14614019764525      4.30143396647030      1.48503238358032
  H   6.92099501654925      2.27789986097175      0.05399077739361
  H   5.73502485657969      4.29152218226895     -0.42494355043984
  H   0.95135497904773      4.33662957213275     -0.33426563893324
  H   1.49800633370733      4.47887996950961      1.30785142339959
  H   -0.64386141609423      2.40645468255707      1.01840296657409
