22
Coordinates from ORCA-job 10833optt
  Br  1.60214803205849     -0.62374690679205      1.53289723535170
  C   3.28955457258566     -0.32694119930522      0.70140513010574
  C   3.70079169488362      0.97526474257152      0.34361006618752
  C   5.02846885902838      1.19424869251819     -0.16872718358574
  S   6.12452564237285     -0.12117293776068     -0.45089743203571
  N   5.32242724017089     -1.48716077313306      0.02257211832094
  C   4.09642336436392     -1.44349517819371      0.52445327659922
  C   5.15695037898162      2.55314778172397     -0.36189742582110
  N   3.99745794586067      3.19975448453142     -0.03473033789288
  C   3.14287960994300      2.26630220366283      0.37841292431816
  N   1.84249239160312      2.63646849351579      0.82099396861021
  C   0.77207284775075      2.26196781106761      0.00514515095758
  C   0.65152586068350      1.84689146778621     -1.29308170749662
  N   -0.65913803352671      1.52808776327738     -1.57118536236547
  C   -1.31911170017523      1.74657660421092     -0.46853592874339
  N   -0.49738565735356      2.19785800410254      0.52143879987972
  H   3.69940340811459     -2.40885244603952      0.82486876945256
  H   6.01469598688154      3.09764424532962     -0.72715433855328
  H   1.84847340054205      3.63330675175405      1.00597837539830
  H   1.44048873161269      1.74280464960001     -2.01812653488478
  H   -2.37955807886731      1.61402675657906     -0.32491890443529
  H   -0.71258649751457      2.31301898899311      1.49647934063259
