19
Coordinates from ORCA-job 10838optt
  Br  1.52589564354305      0.52378143723146      0.76083726204452
  C   3.26294965069532      0.14272722673942      0.10346327676880
  C   3.73291271159328     -1.19350415157829     -0.00242446252534
  C   5.13550724172881     -1.45151707208060     -0.13677567858396
  S   6.24691223524961     -0.12489145757364     -0.46288849565890
  N   5.34357690041689      1.25674267235018     -0.46875576512851
  C   4.08916312585280      1.24463512638676     -0.15965897550638
  O   3.53908312455570      2.52878590735268     -0.03577905902498
  C   2.79332191997002      2.98986542836832     -1.04660239536153
  O   2.55922220829228      2.43183401995844     -2.07190909299834
  N   5.70415437491308     -2.60806610995947     -0.07185595039193
  C   4.90372842129931     -3.72056320851922      0.20408977931471
  O   5.39945175823952     -4.78054168445580      0.53683305867562
  N   3.52567793315805     -3.60087339014025      0.03953364767627
  C   2.98558706584664     -2.41174650581697     -0.04211303163217
  C   1.56452276542538     -2.43099339128511     -0.31104607950859
  C   0.40575765465605     -2.53779572974457     -0.59753756461613
  H   2.42599681886351      3.98875534073032     -0.78009555797016
  H   -0.62542155429938     -2.61263445796364     -0.84231491557298
