21
Coordinates from ORCA-job 10835optt
  Br  1.14762541427370      0.26874088122859      0.02510244241590
  C   3.00726000367821     -0.13971728843211      0.08318487732925
  C   3.40281017904661     -1.49113533604063      0.04362409015769
  C   4.78847892668812     -1.83784006493263      0.09380203753828
  S   6.02906057565986     -0.62646968920789      0.19056034806348
  N   5.23057513226381      0.83169666180087      0.22088908422788
  C   3.90939060715164      0.90827129259122      0.16860971668980
  N   5.04501891564658     -3.15909706122239      0.05826844291627
  C   3.79571025201206     -3.66458480821289     -0.01969602988658
  C   2.74080582330910     -2.75133651828267     -0.03031541243075
  C   1.53555310334644     -3.52143846189909     -0.09930761792900
  C   1.90238927328095     -4.84234210181778     -0.12476663766846
  N   3.29213051392566     -4.93927431102743     -0.08178108549358
  C   4.09072418895795     -6.12008848999154     -0.01141815305274
  C   3.94869918571015     -6.99328348209930     -1.19242873040182
  N   3.83581729080239     -7.69983115124195     -2.08745574471362
  H   3.51499974082713      1.92053565742332      0.19766165136996
  H   0.51925781268759     -3.16457765137280     -0.13443287637600
  H   1.30129360843036     -5.73483958767929     -0.19326347365256
  H   3.85422487225703     -6.72348451461574      0.87083812417741
  H   5.13317458004461     -5.80390397496781      0.06232494671919
