24
Coordinates from ORCA-job 10832optt
  Br  1.67083360784373      0.39263461500149     -2.12751183832728
  C   3.35234937562251      0.25682429945352     -1.23617084442212
  C   3.64668593006397      1.04203535009127     -0.09506363335153
  C   4.95739428506234      0.94841957602564      0.49053069476013
  S   6.16977493803897     -0.13361568531485     -0.10484688761733
  N   5.48948363576314     -0.90779093166947     -1.39445664760192
  C   4.25546077725504     -0.63630575430596     -1.79518934627938
  C   4.97537347892207      1.83153111560779      1.55275925892572
  N   3.77570901821781      2.45427179549421      1.67990671140941
  C   2.97837485031226      1.99026758247570      0.70483934910506
  C   1.56384035427514      2.47522639822352      0.61306027085952
  C   0.93224826885561      2.84175478475248      1.95892564404127
  C   -0.19799226288136      3.76350261544050      1.53234571699108
  O   0.28688182355551      4.44048097943718      0.36871789769152
  C   1.33055629750001      3.74255423220362     -0.18668816230198
  N   1.94472588164361      4.12529361959673     -1.21305768715600
  H   3.93794252770672     -1.19615180210727     -2.67041355167367
  H   5.78864598336744      2.03415115892463      2.23454003259792
  H   0.94485466424726      1.71388132822126      0.13053259527456
  H   1.67351995317354      3.36693444398325      2.56020117152657
  H   0.58556168423210      1.96887390825134      2.50965737668827
  H   -0.46126866594282      4.52065024567930      2.27052337475501
  H   -1.09864547968148      3.20349540383269      1.26045361089754
  H   1.55168907284681      5.00508072070141     -1.54659510679238
