23
Coordinates from ORCA-job 10844optt
  Br  3.08866740638650      2.31926618305991      2.56218909629339
  C   4.15272843808162      1.34722153076181      1.30216710665975
  C   4.94647963477597      2.09316410632618      0.38904500351795
  C   5.61495473977651      1.42726459808923     -0.63011237803661
  S   5.56811476512777     -0.30478373411790     -0.67394955725104
  N   4.76724550995895     -0.80941398563773      0.74550898271888
  N   4.07500769940103      0.05532169095955      1.44814558395145
  C   6.45226712455036      2.10768292911563     -1.54065219277979
  C   7.82587027768647      1.88169171336314     -1.54379621158362
  C   8.73208832324303      2.86705607811759     -1.94177604020587
  C   9.43812862785325      3.35104221372874     -0.76310726979378
  N   10.42223671943304      2.95991725391202     -0.07923091437481
  S   8.35515174308391      4.71262809128274     -0.01543102816225
  C   7.73398876663903      3.72322357102809      1.32503442250784
  N   6.54829869298784      3.36206928006796      1.57012654675751
  C   5.42453674234807      3.48097972460194      0.74472664589821
  N   4.88833464371873      4.59340235885577      0.47411664819050
  H   6.13471629259489      3.10712025662823     -1.81627057248438
  H   8.18930665723674      1.05741539271587     -0.93139798453006
  H   8.26617130966988      3.67558734157566     -2.49714630766055
  H   10.88600704638874      2.20291579945991     -0.58707260800995
  H   8.50868125029146      3.43394070968293      2.03302635755894
  H   4.03001758876601      4.43128689642264     -0.05114332918171
