23
Coordinates from ORCA-job 10840optt
  Br  1.14628246122610      0.34755207095456     -0.33105760013125
  C   3.01289266252216      0.14615472518356     -0.10341661529683
  C   3.65430541752789     -1.09463313395935      0.07584351986038
  C   5.09351907964412     -1.02643118937752      0.22427939250604
  S   5.71077091333549     -2.64294758767581      0.43698281310342
  N   4.21477960415250     -3.37266782726014      0.34173038381214
  C   3.26580223708803     -2.45947432506162      0.15641909519471
  C   1.89327463350194     -3.05163508939930      0.05244981151497
  O   1.01914336071841     -2.55462942441179      1.04133525559516
  C   -0.29008483193199     -2.66597314551820      0.53633019610639
  C   -0.10890901969850     -2.80275002924171     -0.99008317500820
  O   1.28467614616246     -2.76541870090646     -1.18781795689791
  C   5.76004438384682      0.13731912930675      0.18892424034235
  O   5.10871601971466      1.32689627185436      0.01653602091826
  C   3.72738482339644      1.38541109963535     -0.13261712269219
  N   3.20895220894047      2.54989026391715     -0.28471714762682
  H   1.99008363051608     -4.14007495780331      0.16716361947323
  H   -0.84076219334880     -1.76709104860641      0.81331095630875
  H   -0.79064685833352     -3.54448147334554      0.95867695961429
  H   -0.55440887526050     -1.97298319421381     -1.53866781507407
  H   -0.52360376620152     -3.74780888635949     -1.35832486684892
  H   6.82674908076306      0.26266405554957      0.29013066438203
  H   3.95603888171816      3.23911239673917     -0.26641062915593
