21
Coordinates from ORCA-job 10841optt
  Br  1.55058367789805     -0.93298038629958     -1.31024957488007
  C   2.98378800938872     -0.16612671557783     -0.29066092057726
  C   3.57377115118284      1.06563526790476     -0.71676107916125
  C   4.97889844410219      1.15586028487962     -0.75176302140720
  S   5.38938976591027      2.65742991160552     -1.51010781910879
  N   3.82515261597842      3.15019541772334     -1.72708367661107
  C   2.99635319395117      2.25391055047137     -1.24356460144206
  C   1.54690467980753      2.61709065002804     -1.21046077928283
  N   0.69415324378558      2.16663273924758     -0.38215537102269
  N   1.21634207111467      3.56570666215421     -2.15758484893555
  C   -0.00567012801895      4.19252085388386     -2.33411660156678
  N   -1.09999127474789      4.00406235655848     -1.73296017862947
  N   5.87980040548455      0.26988143401561     -0.33123992940130
  S   5.30536028268785     -0.76211560550657      0.72717833954350
  O   6.01956196365913     -1.99224428023640      0.69806184964652
  O   5.02901189993324     -0.16277954548555      1.99640511326356
  O   3.82640763852489     -1.16265829028110      0.10996984462605
  H   1.12502559361093      1.48496442028854      0.23756649279102
  H   2.00458571487733      3.91632676608918     -2.68126091575506
  H   0.05027851197088      4.94132481757295     -3.12579685349169
  H   -0.99170746110149      3.27836269096393     -1.02441546859757
