22
Coordinates from ORCA-job 10849optt
  Br  1.15706841915443     -0.67306182637583     -0.19952378913056
  C   3.01626405457965     -0.19260913344058     -0.17994759439555
  C   3.38184859477637      1.16595826052479     -0.03703542364918
  C   4.75753548534422      1.50148339988189      0.05335017693484
  S   5.97822641192766      0.28795106424193     -0.03367154604883
  N   5.12379416266623     -1.16289305703075     -0.27712580632419
  N   3.81375936658022     -1.21198742812490     -0.29276269274620
  N   4.97616673837937      2.80350684034166      0.20509697611171
  C   3.73634192465593      3.32776826556497      0.21986049802576
  O   3.64452567176087      4.69930999109245      0.45703584214637
  C   2.90547799581075      5.49353633693911     -0.30116761176696
  O   2.19319302981600      5.18695063893345     -1.21547772355689
  C   2.70516638799199      2.41216470633401      0.07148457103693
  N   1.31417998020112      2.65104665276790      0.01442659772575
  C   0.59374129000760      2.60391565991472      1.26904245492384
  C   -0.86894808828410      2.35872773782701      1.00036481104479
  O   -1.77400375721695      2.89160560447440      1.58721662705634
  H   3.03573486019171      6.52686453609765      0.04482916845419
  H   1.12438791492802      3.49521080112866     -0.50908744194298
  H   0.70655082044017      3.48754716880329      1.90973505257040
  H   0.95262851505680      1.73365178414516      1.82924854273024
  H   -1.05363977876811      1.62635199595895      0.19210831080019
