25
Coordinates from ORCA-job 10858optt
  Br  1.06091622080904     -0.21908544279310      0.76179283417737
  C   2.88321986623460     -0.11023642430301      0.28406196393724
  C   3.58874283667480      1.05270341050631      0.40637164130373
  C   2.99339354983821      2.34535004923206      0.86297076766322
  S   2.78066608840066      3.52274968597379     -0.50506613047093
  O   1.85395128566380      4.51920623550047     -0.01232445240283
  O   2.35588453940543      2.70207501630119     -1.61615837877611
  C   4.34752549205743      4.21876021369240     -0.75209201863766
  C   4.36446620972440      5.53983125011229     -1.29673492220132
  O   5.39236220818366      6.13561270650454     -1.63292822971961
  C   5.51446224035558      3.44732603300656     -0.63759605903087
  C   5.73734204323455      2.29921780933516      0.27633758459524
  N   4.91017425923825      1.08012317558773      0.04677318894353
  C   5.49076815819218     -0.02075919419035     -0.48720509390334
  C   4.84124151751150     -1.19466968947469     -0.63869751993604
  C   3.46283848278329     -1.35277218544299     -0.22724465772962
  O   2.84938039336051     -2.41093963382154     -0.30709301736769
  H   3.56860423887531      2.84395801533200      1.63988566341927
  H   1.97543997083954      2.19855230422156      1.21144308828489
  H   3.38159954740315      6.02409749723818     -1.40964134331066
  H   6.40390386342058      3.91311593819512     -1.04301390385078
  H   5.58699606174591      2.55537551423771      1.33412929195889
  H   6.76946069358349      1.96729514688118      0.18887890111293
  H   6.52278361380306      0.10703292722203     -0.78491805573221
  H   5.34387661866083     -2.04792035905474     -1.07093114232660
