28
Coordinates from ORCA-job 10869optt
  Br  3.35876628337989      0.15660112960203     -2.39550615788280
  C   3.18646388198063     -0.09557172138570     -0.51348489719923
  C   2.27386925532032      0.71495147413060      0.21924608367469
  N   1.57423602904099      1.69582658370866     -0.53206454552186
  C   2.24595190460848      2.87011673842028     -1.03222586327928
  C   1.02610198947425      2.99368538890905     -0.19414286054366
  C   1.00649191638882      3.75380095970537      1.11885400024757
  C   -0.38781751502765      3.75645685990491      1.76769193231902
  C   -0.83256037662696      2.48129742541511      2.50142523714154
  C   -0.25702902303911      1.19865394294217      1.93131591457575
  O   1.11676162591770      1.25029774165352      2.24729371068145
  C   1.98959411940909      0.42821546930003      1.56447475126321
  N   2.49994486014883     -0.51670561826736      2.31763097383332
  S   3.75986665820098     -1.44345848478401      1.76090844917418
  C   3.96523536378690     -1.14751720626892      0.01113521310864
  N   4.80117620370345     -1.88663873651285     -0.64438785147450
  H   2.22081585866054      3.02715004669444     -2.10426075290857
  H   3.18685914306652      3.11957078005508     -0.54696121253723
  H   0.10078311051626      3.15688306636154     -0.74750584906911
  H   1.24319783598430      4.79311135042449      0.86573246489597
  H   1.77715277545171      3.39550479066494      1.79832778632868
  H   -1.10796347772440      3.97686338132423      0.97194611531568
  H   -0.45191458081215      4.59523751321395      2.46568363094457
  H   -1.92441987446401      2.42820368140029      2.51205498609376
  H   -0.50559511189351      2.52352549907239      3.54319107813715
  H   -0.40975679978507      1.12072973085983      0.85022399631615
  H   -0.71236204185028      0.31996891330164      2.40311824379586
  H   5.20914998618345     -2.58876069984574     -0.02971457743095
