24
Coordinates from ORCA-job 10863optt
  Br  1.46286960375338      1.11092132168524      0.57244352323105
  C   3.21502754329988      0.61456311170257      0.00276495566605
  C   4.31587672969494      1.30286995022239      0.44608385900629
  N   4.10363195625349      2.42914175135986      1.30767389957451
  C   3.52705202030994      3.69126097618223      0.84835306718155
  C   3.47808944874716      4.00056774429718     -0.64069696648319
  N   4.84017878308897      3.83688009291557     -1.15835658534724
  C   5.61098992599140      3.59758105323534     -0.17527309267788
  N   6.88368849852343      3.05759353743389     -0.24941245602083
  C   6.82452796080288      1.75011665661757      0.50033582138771
  C   5.63882678631607      0.88864597902525      0.13279301107343
  C   5.91776903707280     -0.28328016109537     -0.61038872460120
  C   5.02219905451546     -1.19208687211196     -1.17505033961565
  O   5.25132726009196     -2.21989574203409     -1.81030276360184
  S   3.22513031230237     -0.82934374380024     -0.97456582715366
  C   4.96493524596528      3.58545222364570      1.17619564444270
  H   2.79218854342979      4.11858689965251      1.51729112207449
  H   3.10147127143755      5.01453767946219     -0.80272933120718
  H   2.82873118126894      3.30794128281625     -1.18249662983530
  H   7.09322435702200      2.87700645408016     -1.22690987900391
  H   6.84668383970001      2.00278549249992      1.56202632099656
  H   7.74503348316270      1.21518355233617      0.27647126769575
  H   6.95767711425179     -0.54146646469229     -0.78439940270547
  H   5.47087004299774      3.95543722456395      2.05914950592326
