25
Coordinates from ORCA-job 10861optt
  Br  1.58740027567604     -2.28952899973157      0.40823767297906
  C   3.24137151037307     -1.39109335312842      0.09754169893087
  C   4.43589024173677     -2.13761094768084      0.10056796709278
  N   4.70488561537658     -3.38212484568319      0.79310647512586
  C   5.45092159804355     -4.42518547489466      0.05628532815894
  C   5.90871195659825     -4.16253349093638     -1.36761997410056
  N   7.07640692645202     -3.27426616201487     -1.21774646079453
  C   6.80139499847806     -2.45748390453175     -0.01078365558381
  C   7.92739522230283     -1.47255010485425      0.33309872038909
  C   7.49404543889777     -0.10877610019687     -0.30292545368756
  C   5.99279305503329     -0.24987377239209     -0.42308331299291
  S   4.73666728638503      0.95074860157963     -0.54795205086585
  C   3.14262472271797     -0.02315657688987     -0.20820560416033
  O   2.15531139446761      0.69404145478308     -0.28435125205812
  C   5.64236705372527     -1.53256740220749     -0.21449923826165
  C   6.16683701348451     -3.48755247790804      0.94592041242880
  H   5.19921031106865     -5.43822127107045      0.34430507656378
  H   5.09579887158989     -3.69979084725026     -1.93942502161958
  H   6.19796599882858     -5.09385357483797     -1.85764372423805
  H   7.15299129639924     -2.65623756279478     -2.02177492419235
  H   8.89775233395880     -1.82242766361060     -0.02269965374472
  H   7.98096025742014     -1.35140263033087      1.41666950343061
  H   7.98522802435252      0.05093238045748     -1.27197831898147
  H   7.77991496885999      0.73596294450610      0.33069738100239
  H   6.57015362777350     -3.72544821838103      1.92225840917930
