25
Coordinates from ORCA-job 10867optt
  Br  1.53211661539701     -0.27491571178022     -1.22596600180921
  C   3.37397385936624     -0.08082887701730     -0.76632152172365
  C   4.13571759364913     -1.25005850823845     -0.58542453260187
  N   3.49918221294193     -2.48966177370982     -0.89875045776558
  C   2.97408159566941     -3.28299172960468      0.19899624486838
  C   4.16534335082815     -3.73990651600123     -0.57991284764826
  C   5.52633626106297     -3.68741848030735     -0.00773146878657
  C   6.09874844767889     -2.50154509450363      0.21447319186503
  C   5.44412688069146     -1.23424666288226     -0.08023882798252
  C   6.13484341075255     -0.05591800269486      0.18166189620716
  S   5.55645157164184      1.52043228526325     -0.26008215393926
  C   3.80991779309785      1.25759826041823     -0.60086507830802
  N   3.04891972711996      2.29361553696660     -0.73115629943273
  C   3.58906217952126      3.60806035230774     -0.56718470321684
  C   2.47775834159858      4.62460747946740     -0.64690763640929
  O   2.63947900380387      5.81756485358899     -0.61949726465954
  H   1.99705711283555     -3.72088200032837      0.03116410495990
  H   3.17031650457084     -2.91617552983540      1.20094550605915
  H   3.99411354485334     -4.51840043691571     -1.31952923073834
  H   6.04409445561784     -4.61732711359405      0.19225498734927
  H   7.10262986928397     -2.44835688929521      0.62347459021909
  H   7.11198663243362     -0.06205902135631      0.64314997765528
  H   4.33433146704656      3.88334736681972     -1.33007706755676
  H   4.09388757109122      3.75888536917882      0.40179879721472
  H   1.46752399744591      4.17958084405410     -0.73227420381953
