24
Coordinates from ORCA-job 10874optt
  Br  0.89930010869244      0.77941782693564     -0.52350174720960
  C   2.68763372931258      0.34824703035446     -0.00965430520029
  C   3.22906681073359     -0.93172864478842     -0.29438504086825
  N   2.39068104999886     -1.99136138185632     -0.74880360849223
  C   1.19682396429385     -2.35770006666247     -0.02503455466368
  C   2.37861862109578     -3.24465502267376     -0.00306182605254
  C   3.07788748513619     -3.38823633910377      1.33634597991071
  O   2.44985053204837     -3.35800726366967      2.37994892762384
  N   4.41163951666252     -3.63777284522762      1.33998586207497
  C   5.39449928996691     -3.54179953604815      0.26891535514039
  C   5.09484372698698     -2.51076251435882     -0.82329100765838
  C   4.60452434153231     -1.19020348530846     -0.27846752488656
  N   5.56188631500585     -0.38894666071906      0.16728002252498
  S   5.16443631108856      1.08249792957640      0.84559695685305
  C   3.42163342083341      1.43202043737173      0.50542807805825
  O   3.04702518785262      2.57034692536553      0.75930625882602
  H   0.33658462764359     -2.59193103889637     -0.63884639206309
  H   0.98931896382583     -1.84221212053946      0.90477780858335
  H   2.42446281577600     -4.13786348287998     -0.62026490085807
  H   4.77629976365000     -3.67037229474011      2.27949209199986
  H   5.55670103955165     -4.52467794925500     -0.18683843135468
  H   6.32593764964045     -3.24611560178106      0.75216170937498
  H   4.39238726557003     -2.90895361401882     -1.55304917239574
  H   6.03695746310155     -2.32323028707639     -1.34104053926731
