23
Coordinates from ORCA-job 10873optt
  Br  0.84156350263036      0.63217477438145     -0.33967728134664
  C   2.59901386974212      0.08049067662274      0.20054198878219
  C   3.11602912258601     -1.12584705864121     -0.23906504317593
  N   2.27680961390800     -2.15969266462036     -0.74453334414032
  C   1.09669896783243     -2.53296239914163      0.00303601086878
  C   2.28393315107154     -3.41984760890739     -0.02223660678697
  C   3.05023214375008     -3.53503882063515      1.26469392523985
  O   4.35620105717645     -4.08390821970125      1.13083457440996
  C   5.22064738344440     -3.75463266105033      0.13794045291194
  N   6.22431983136751     -4.50109302653409     -0.09900163616372
  N   4.97547423658347     -2.64746716232338     -0.64011335911119
  C   4.49429943845640     -1.36179865967417     -0.21375508400951
  N   5.48716396205024     -0.47282432435671     -0.01362436738860
  C   5.31458790248031      0.77547367594241      0.38158048314313
  O   6.14563756532031      1.65071621236839      0.52392028475250
  S   3.59245141780271      1.33952008635351      0.85719235376238
  H   0.22057174053855     -2.75734305827416     -0.59166299433077
  H   0.90294052677727     -2.00218904131309      0.92963376623251
  H   2.29807020280935     -4.30439257942545     -0.65068479762595
  H   2.53896926404030     -4.23868708929353      1.92351525739575
  H   3.09536798502219     -2.56619326402551      1.76589193823715
  H   6.17614884298495     -5.32038874053255      0.49880337895258
  H   5.77586827162494     -2.52406904721845     -1.24822990060914
