27
Coordinates from ORCA-job 10878optt
  Br  1.30808600291657      0.81237746718006      0.45870119278298
  C   3.18860427184591      0.18992803485700      0.45798323351010
  C   4.18261948518879      1.08859433861048      0.11223183183056
  N   4.23892085897038      2.47263878607160      0.46857362856916
  C   5.60621169822514      2.93293481095168      0.05412562956603
  C   6.33484299875173      1.73831057105608     -0.59307229345119
  C   5.31317711950230      0.63668833225992     -0.54690166570208
  C   5.39297893055435     -0.65551757848328     -1.04652711096752
  C   4.30352094459402     -1.55298090968683     -0.81806946663701
  N   4.12600842091374     -2.75430963413165     -1.23996669013325
  O   3.29331545779358     -1.10209326629318      0.02262699270755
  C   6.19957765137068      3.41629846441058      1.39005120030400
  C   5.62729765517112      2.38506635986370      2.37351418978476
  C   4.18790278707052      2.69830898822178      1.94144697906743
  C   4.15228852934388      4.22019022791307      2.08346730427952
  O   3.22670947529559      4.95491680347308      2.31768725317831
  N   5.45730443172036      4.60637991308515      1.82609748281457
  H   5.51735519238971      3.77077777437373     -0.63999845677292
  H   7.24356758971362      1.47251698453118     -0.03586778453863
  H   6.64568311134776      1.96657964185654     -1.61533612184979
  H   6.23608457782269     -1.00649107257885     -1.62473249820465
  H   4.91794901325702     -3.00134485815357     -1.82664573360418
  H   7.27591080144937      3.57401307092562      1.39124551551817
  H   5.85731252217993      2.62694161755935      3.40988572181378
  H   5.90090589539401      1.35758386396822      2.13659084180277
  H   3.35440973556554      2.17462413260932      2.39473084153655
  H   5.60945484165156      5.51106713554918      1.40615798279499
