24
Coordinates from ORCA-job 10870optt
  Br  1.22474600086272      0.36523242420224     -0.56611674565128
  C   3.09987999169373      0.25571328686050     -0.35538417870326
  C   3.81908022697317      1.35837083341507     -0.05591561058472
  N   3.22395188957103      2.62907621646917      0.11741493441107
  C   2.68324120516980      3.30118516135540     -1.04992911601653
  C   3.94963159391278      3.76274538334003     -0.43109538383348
  C   5.28855189889445      3.40941509308157     -1.02283785999302
  C   5.99175029730186      2.48597782656153     -0.03461747312687
  N   5.18550014108470      1.29523030588184      0.19865705094813
  C   5.87825672557190      0.04269692006147      0.34121065799757
  N   7.11896547552833     -0.02509732738847      0.73770729980145
  C   5.11093678759772     -1.07273640818901     -0.02568402829890
  C   3.75239637745432     -1.02852761342633     -0.40278869651785
  N   3.19052545830225     -2.18550708020804     -0.70900907715517
  N   4.00234186783942     -3.22719884298623     -0.61632089055498
  S   5.57295295637684     -2.73573004516911     -0.09093166563438
  H   1.75579828396596      3.83285654220410     -0.88229112420578
  H   2.75557485884450      2.77101401701908     -1.99298805356796
  H   3.93007414241171      4.63943552360616      0.20889082219889
  H   5.88823478241438      4.30170126953521     -1.20520636126949
  H   5.16341015533264      2.88146213270952     -1.97045360944188
  H   6.18856735123419      3.02719362771092      0.89962521268001
  H   6.95084276256952      2.15640387224505     -0.43490938823095
  H   7.46678876909204      0.87808688110830      1.03997328474939
