27
Coordinates from ORCA-job 10898optt
  Br  11.52287071016360      5.35942123131974     -0.95199773606620
  C   10.61852573601406      4.31087449672520      0.32860271072261
  C   9.43304741013688      3.64661501542221      0.03914695425416
  N   8.56587131695573      3.77632393833157     -1.11953008548662
  C   7.66636123335600      2.60210860095620     -0.89627188726168
  C   7.30936682755730      2.89499684511184      0.57789884345835
  C   6.88421303997624      4.38843900799775      0.50530058105392
  N   5.50882845347983      4.86573764485432      0.48296231932362
  C   5.50755679428378      6.09854579853582      0.15368441179400
  N   6.61184905207180      6.86537991982860     -0.17352073347700
  C   7.88801105847503      6.28371636433136     -0.66603897317912
  C   7.56349877917646      4.82248292069137     -0.81530294603949
  C   8.73604807123623      3.02888297984383      1.08437587904142
  N   9.13020268757643      2.88362479413063      2.32090874859229
  O   10.50042194124406      3.27902162806106      2.49289039930835
  C   11.17948082931061      4.13200733655625      1.62834187115020
  N   12.27797018432699      4.64574508576890      2.04823003297082
  H   8.22096430685219      1.67538641578793     -1.02477150848111
  H   6.81704638615135      2.63803559743653     -1.57959636422520
  H   6.64808211365641      2.22029803749517      1.11355794810182
  H   7.36984504706552      4.89816910890034      1.34550737635843
  H   4.57058181258617      6.65345246473710      0.14303302863567
  H   6.41207219128223      7.80808529461254     -0.45804888531533
  H   8.69504457068264      6.45055886853700      0.04987932727502
  H   8.15567200253274      6.74823537217487     -1.61601935228109
  H   6.80861705384872      4.75232336067514     -1.60480676577195
  H   12.42095039000085      4.34653187117663      3.01058480554408
