24
Coordinates from ORCA-job 10897optt
  Br  1.48463310415269     -0.91233719011011     -1.03495067976232
  C   3.28327552115533     -0.56768680092385     -0.56523094047040
  C   4.29378112056381     -1.39499068212052     -0.91607930363351
  N   4.13632257529099     -2.68022949184858     -1.61958031003554
  C   5.50989959277800     -2.78473693552874     -2.21568630213516
  C   6.31628227802618     -2.55581218209732     -0.91192884185359
  C   5.64433373620876     -3.64138835156595     -0.08388466134431
  C   5.70741654223206     -4.49678381486736      0.97432110231453
  N   4.43710058261055     -5.01873630047060      1.14592704769813
  C   3.56352252593200     -4.49766691063690      0.21036372138981
  C   4.30259222688554     -3.65138680939220     -0.55451139901954
  C   5.63525003569150     -1.25882631117224     -0.48596532137193
  C   6.03779063141587     -0.30660458630062      0.45401562716696
  Br  7.86464741041975     -0.34523562297055      1.04162709437191
  C   5.24666482069067      0.73894158175258      0.98013037516963
  N   5.50851709563679      1.68739268737023      1.81618905008065
  S   3.54150844582156      0.88882606552110      0.37370466638357
  H   5.65610427891540     -1.99981262827803     -2.95560907067503
  H   5.64455450865967     -3.77582866593114     -2.64952223353110
  H   7.39964276253843     -2.54140582214151     -0.97140080252302
  H   6.50987716056849     -4.77973542178838      1.63408102557742
  H   4.19027007960799     -5.70610885588220      1.83287829994136
  H   2.52071302650669     -4.76296304590797      0.20203576779419
  H   6.48029993769119      1.62111609529092      2.11207608846732
