23
Coordinates from ORCA-job 10901optt
  Br  1.09859877962571     -0.04894294465389     -0.33030613372266
  C   2.97172887525380      0.11626187420092     -0.11333747573760
  C   3.57902912760936      1.38771826237869     -0.04877108375050
  N   4.99480940120620      1.32911048306252      0.07397490321897
  C   5.87711491363738      2.36257156950486      0.03430067585567
  C   5.36332270489634      3.73392981838904     -0.21738628076980
  C   3.94735166851016      3.84858084757400      0.34924762241953
  C   3.00480985960613      2.69062967227061     -0.00845219326822
  O   1.79555694566751      2.94623676349914     -0.16499652329514
  N   7.09924458029575      1.92086473967981      0.17421409533042
  N   7.04595110375050      0.55732814406428      0.29030124534152
  C   5.77731245508073      0.21425072058398      0.21782915439050
  C   5.10934479372477     -1.03860261369871      0.21054879215896
  C   3.72191713797094     -1.07139799571906      0.01658606335155
  C   3.26051003792065     -2.43482874440220     -0.01088932355270
  C   4.26054940966668     -3.33263011719030      0.14785254413287
  S   5.80959252083341     -2.60404075785213      0.33815857573720
  H   5.33822477131582      3.90585859202085     -1.29851374364696
  H   6.04451885618389      4.46731536015364      0.21435278676583
  H   3.45993025309322      4.76010782659066      0.00536910245098
  H   4.00188463811226      3.90157019405468      1.44277068601838
  H   2.22378763037384     -2.70441193000047     -0.14536025973070
  H   4.17190953566490     -4.40747976451093      0.16550677030191
