29
Coordinates from ORCA-job 10907optt
  Br  1.62005228497224     -1.56066877566157     -1.91968508998432
  C   3.21251921516658     -0.77858892976668     -1.25284270230433
  C   4.09145417953751     -1.50780286939231     -0.42322331087363
  N   3.89606685096409     -2.79319232869310      0.13695332533921
  C   2.81555455808041     -2.96953577840897      1.11112713910782
  C   3.30379794168505     -4.15735283443276      1.92870500792220
  C   4.78857557646716     -3.82719923679554      2.10604719202390
  C   5.18485619610610     -3.17915912496642      0.76957718121953
  C   5.85519647508419     -4.19105285782697     -0.18351549613712
  C   7.14708945696744     -4.68007354249088      0.29021535642699
  C   8.20303938755469     -5.07177505933442      0.70550012077836
  C   6.03727721957036     -1.88686169844606      0.86433825581757
  C   5.31256680564857     -0.95346827643369     -0.06647683551293
  C   5.66324075021478      0.28976963683214     -0.52181778316629
  O   4.78581970985559      1.02383968601165     -1.30064046107902
  C   3.54919849480023      0.51117779372236     -1.72399561170070
  O   2.90206542838115      1.24242431831606     -2.45314732006493
  H   1.86671572224966     -3.13683730437118      0.60374615717694
  H   2.71219558408638     -2.07926020099598      1.75067383822306
  H   3.18284893814033     -5.07609229796681      1.34998920502116
  H   2.77497770063131     -4.27492678002738      2.87470807424040
  H   5.40851989818426     -4.69196127096826      2.34689526892491
  H   4.90402284513821     -3.09983215584290      2.91237883689763
  H   5.97452890833652     -3.69968309706715     -1.15304497000210
  H   5.17584517897080     -5.03347592177303     -0.33162860322103
  H   9.14189287283706     -5.41541747365594      1.06567045556007
  H   7.07126047546403     -2.08019957560215      0.56755507882318
  H   6.06472917735224     -1.49699502921760      1.88728557033134
  H   6.58309216755290      0.81520098525560     -0.32034787978787
