24
Coordinates from ORCA-job 10902optt
  Br  1.50414833342805      0.31619252568205      0.01642043810793
  C   3.37372337494677      0.14639150805808      0.00873133556220
  C   4.21119330189891      1.22140213613928      0.00632665190506
  N   5.55964864200664      0.86343831712299      0.00360030877516
  C   6.42032565561227      1.90468109783525      0.00303663827161
  C   7.68748972733788      1.34336846169867      0.00210071236896
  C   7.53399573903777     -0.07310139075409      0.00203420038488
  C   6.16731774505056     -0.34462648070866      0.00316703564951
  C   5.26262293588257     -1.45441920539141      0.00380327051155
  C   5.40491671766118     -2.82932775305722      0.00165426670851
  C   4.11082252768728     -3.38311159065156      0.00309406148567
  C   3.20221844551175     -2.34840185645712      0.00585596658699
  N   3.89434845052926     -1.16177028278912      0.00644561777568
  C   5.58995356513523      3.12913905946167      0.00434631603241
  N   5.98109281859313      4.35722912209520      0.00382439981059
  C   4.17621836421713      2.67155046182168      0.00628093840012
  N   3.14803625641974      3.50185224876312      0.00725011981743
  H   8.62358436327494      1.87857792194715      0.00168075590685
  H   8.32432976800281     -0.80506304423898      0.00140663729072
  H   6.34621466098539     -3.35338772137208     -0.00079351654336
  H   3.85475261338960     -4.43007362557787      0.00201635734123
  H   2.12830978499827     -2.35792691128104      0.00728144508387
  H   7.00047792170821      4.38107560006329      0.00234269410425
  H   2.28125828668461      2.96931140159073      0.00809334866214
