29
Coordinates from ORCA-job 10912optt
  Br  1.08583778067673      0.06327965358095     -0.92731588707665
  C   2.91451231291918     -0.00063598909514     -0.35873264374234
  C   3.50279299703039     -1.22228318259824     -0.10898920708634
  N   2.76408088888037     -2.42771598981244     -0.22071392943577
  C   1.88008418278218     -2.78242074391300      0.88279605775556
  C   1.36727090852509     -4.15732678050656      0.45781227174464
  C   2.54344177424315     -4.78215617063235     -0.32282119018954
  C   3.54962897782515     -3.63029692348877     -0.51966058741783
  C   4.77161066108215     -3.77033511881943      0.40131826155573
  C   5.58024243544684     -2.48945669234977      0.49914869550291
  O   6.78435452322078     -2.56106458971275      0.84123763611874
  C   4.89645653415881     -1.26353495143126      0.24047813381826
  C   5.58403273566912     -0.01813027301256      0.34578286685347
  C   4.94279247376496      1.17441318566662      0.12082160701982
  C   3.58807315969524      1.22053117432002     -0.23884728566465
  C   4.04246342709193     -3.52119230351019     -1.94911640770142
  O   4.31489303638616     -4.47215135794342     -2.63496447694788
  H   1.09001134261326     -2.04100834721656      0.99299258243601
  H   2.43134093673719     -2.84018870856459      1.83325375027424
  H   0.50670805561770     -4.02922537884505     -0.19908945992777
  H   1.05707149693967     -4.76349103071121      1.30882048180766
  H   2.22327182613391     -5.18384689271380     -1.28306296763685
  H   3.01767301383947     -5.59461739748460      0.22706422528901
  H   5.42012952495696     -4.57127142674203      0.03691994377218
  H   4.43491150419850     -4.07193973984342      1.40239645848794
  H   6.62880109180981     -0.05407425240732      0.62439762490819
  H   5.49078350160633      2.10548947750618      0.21709789077103
  H   3.07601350326142      2.15079928121692     -0.43245516658466
  H   4.13771539288740     -2.48914853093612     -2.33456927870369
