20
Coordinates from ORCA-job 10916optt
  Br  0.82560059393495      0.32676270702640     -0.03598859926036
  C   2.72028005986456      0.24699995631860     -0.03602547516160
  C   3.49708991318757      1.33705427644373     -0.03605518794455
  N   3.12428154943552      2.70556271787285     -0.03605047944450
  C   2.00155861603481      3.46526643840284     -0.03604626681145
  C   2.41335015974463      4.78694762155015     -0.03599745427456
  C   3.84178754295724      4.81799815952941     -0.03596217112354
  C   4.24498089178087      3.51193108696175     -0.03605544307934
  C   5.45258862304279      2.65219418938450     -0.03616234888773
  O   6.61977560798308      3.04290913263288     -0.03600485482130
  C   4.94592776875466      1.30052031602807     -0.03604535039868
  C   5.70909613274503      0.13687273170925     -0.03596443179558
  C   5.20231328898637     -1.17430206357408     -0.03582600659876
  O   5.79064620949833     -2.24087109229186     -0.03596883126981
  S   3.35196433776922     -1.37259066775913     -0.03600175812888
  C   1.52767392998172      5.89639872060251     -0.03595270106658
  N   0.80808616507902      6.79388468375163     -0.03591641869217
  H   1.00926201969012      3.05749633334145     -0.03605866115422
  H   4.47227006368273      5.68998440464417     -0.03591604337438
  H   6.78846652584672      0.23098034742485     -0.03600151671201
