28
Coordinates from ORCA-job 10911optt
  Br  5.66691165221227      1.26878550736604     -9.53540132081633
  C   5.53316405672317     -0.18096595815931     -8.27389229205321
  C   4.49230044566851     -0.22567577426744     -7.32988302921121
  N   4.16773167685067      1.04202209233072     -6.74928368344809
  C   2.85592584534998      1.18648425038282     -6.09933721674849
  C   3.09964872527575      0.94105872414829     -4.58464119946471
  C   4.56321708875278      0.57256082188163     -4.61844276506683
  C   5.13970889116070      1.45254062487627     -5.69796202364999
  C   5.02841931654922     -0.67033266643163     -4.49265701551663
  C   4.08219696903900     -1.84334434947374     -4.51735166088544
  N   3.22435758598853     -1.68340885323788     -5.71386356731594
  C   3.93970928936275     -1.49629552234681     -6.94805893605455
  N   3.99612453274583     -2.60837460389935     -7.65249149100110
  N   4.64612019232983     -2.51144655175770     -8.88270087340242
  S   6.12692179781215     -1.70414033937710     -8.77364548339420
  O   6.89174847318282     -2.30003962016685     -7.70487396422379
  O   6.69332171849955     -1.71246549079243    -10.09510747984004
  H   2.15239359641740      0.47439567223989     -6.52010311427656
  H   2.49266026476689      2.20134622619910     -6.28451749547509
  H   2.46223444368967      0.16054761306866     -4.18080152704586
  H   2.95506259630651      1.85799588637065     -4.00546696766463
  H   6.15225063381448      1.20358032119463     -6.00373137117813
  H   5.03907795057603      2.52715116381812     -5.52249096968672
  H   6.06050263032839     -0.87131882018775     -4.76034497370113
  H   3.42985597704067     -1.89187844119141     -3.64124249778550
  H   4.65796570999687     -2.77424813787489     -4.56593464718668
  H   2.68216344854986     -2.53044592359661     -5.84660203330475
  H   4.78830449100961     -3.44508785111591     -9.25617040060181
