27
Coordinates from ORCA-job 10927optt
  Br  1.13991647530500      0.14408568065288     -1.21036398689200
  C   2.97956153303434     -0.10542906290535     -0.70790268101178
  C   3.34505031529714     -1.24439587541065     -0.04339325882551
  N   2.32109419088259     -2.19022113369787      0.33055592471241
  C   1.69444142569447     -3.10962376926612     -0.67920090169257
  C   2.40087576084502     -4.53396840872232     -0.55037211978824
  C   3.68730455541196     -4.02780064077146      0.12921267258249
  C   2.97023342057748     -3.14664124832263      1.17340555611848
  O   4.69282358785128     -4.70167813795981      0.81796256888607
  C   5.61833111695317     -3.64515156060445      1.13859018189895
  N   5.52918478530973     -2.39908085409427      0.87131772264820
  C   4.79404939512051     -1.36691481746722      0.35605373939819
  N   5.55351321022661     -0.21740912565385      0.24336042583434
  C   5.11421047810878      0.83212266530695     -0.40355439808964
  C   3.85380599303946      0.95466688566717     -0.98844460686167
  C   4.38798973675384     -3.48811740501244     -1.17633108056384
  O   5.31293760273708     -4.09658701483242     -1.63773855498995
  H   1.78089700919176     -2.69919056706364     -1.68254109620622
  H   0.63380557916069     -3.19104245947861     -0.44193839313400
  H   2.54793695311012     -4.99956606033667     -1.52468967539472
  H   1.82336501037852     -5.20655046156750      0.08356539577318
  H   3.59302713931944     -2.68808465590883      1.92750819570105
  H   2.24005129428379     -3.78266141598268      1.68409631689916
  H   6.50406937950626     -4.08322984658210      1.57698477079865
  H   5.80798948391924      1.66885889286512     -0.47408165495333
  H   3.54243427470817      1.82696274975482     -1.54056351230142
  H   3.91910029327348     -2.67135235260598     -1.73949755054628
