24
Coordinates from ORCA-job 10922optt
  Br  0.87834395026180      0.87197092747286      0.41484710572157
  C   2.63346032025423      0.42436816097757     -0.10589353905009
  C   3.09099633024566     -0.83261581789980     -0.21407263700380
  N   2.54893084459845     -2.12938247800802      0.04219806940415
  C   3.65707426902207     -3.10707334937578      0.31834688971994
  C   3.29425388088570     -4.30716002878261     -0.55588555891785
  C   1.76666468337049     -4.22551084470920     -0.59209500860154
  C   1.51259077021141     -2.72587963930552     -0.64585783193090
  N   0.57522961718685     -2.09635746189218     -1.22713436781120
  C   4.88812682790712     -2.28753403556035      0.03086751985511
  N   6.15000670910384     -2.33977498457518      0.39504781184730
  O   6.62039018955366     -0.98481022166539      0.19462304383940
  C   5.55257048214238     -0.18812744888959     -0.16842395667407
  C   4.48107674548041     -1.03665754225896     -0.38895745292356
  C   5.41910001699233      1.19415088367690      0.02398355639481
  N   6.25022579514862      2.11692934605117      0.39480813722050
  S   3.73035160833357      1.80526112615462     -0.36601704894356
  H   3.63810400653420     -3.38432792411651      1.37708678540473
  H   3.68195992185027     -5.24509618579775     -0.16118975506438
  H   3.69964404281679     -4.15126254222481     -1.55722445541708
  H   1.33482999969580     -4.63078714788142      0.32738173376540
  H   1.30745313627954     -4.72895422961831     -1.44109492233558
  H   -0.05232929997631     -2.75720578081649     -1.67690971849968
  H   7.17494515210104      1.69783721904479      0.49256560000037
