24
Coordinates from ORCA-job 10931optt
  Br  0.96256810128777     -0.89245407251149     -0.30742149688907
  C   2.82307410409991     -0.49536065085134     -0.10609848853810
  C   3.75885111941673     -1.55614608216420     -0.26133198933729
  N   3.24957927159943     -2.79848473818497     -0.74860842765196
  C   4.08425262583876     -3.50416314061793     -1.74784698207487
  C   4.66370779513290     -4.41958716699548     -0.65165422391469
  C   5.91473274928729     -3.82462716500056     -0.08984759033878
  C   6.07116824337767     -2.52725513592901      0.19805033068978
  C   5.12408402358656     -1.40445853728037      0.09990758402313
  C   5.65779836038909     -0.18055001800993      0.45297500657752
  S   4.82343809558990      1.33293050600851      0.39397357073443
  C   3.06251432964383      0.85097141793750      0.21025642349218
  O   2.27647020946814      1.77921886408994      0.35690249851018
  C   3.39175353087272     -3.99874168029285      0.14259187285914
  C   3.46851266630057     -3.78553212020362      1.57443992917666
  C   3.52501095680043     -3.60344677891112      2.75729029263531
  H   4.79761811266072     -2.86964537200960     -2.27113258149015
  H   3.44503791286357     -4.03164076506268     -2.46229163605662
  H   4.76779321041193     -5.48370343235918     -0.86753268669539
  H   6.74734003783678     -4.49397935500639      0.09270652818379
  H   7.04213964576309     -2.23336119128847      0.58506218181194
  H   6.68303107601816     -0.11266748666211      0.79219351260880
  H   2.55938118527345     -4.67549980640075     -0.07397080494638
  H   3.57714263648052     -3.41281609229384      3.80138717663042
