26
Coordinates from ORCA-job 10936optt
  Br  0.98301635869713      0.90182045999184     -0.15207017646041
  C   2.83190720817772      0.69057755739552      0.11552506333406
  C   3.62862745849937      1.78505012878817      0.18179652470174
  N   3.15355036550316      3.09717429248515      0.04919230184395
  C   3.96273710807747      4.01553682367316      0.87630303322534
  C   5.29315850155436      4.03293495602033      0.14681780220011
  C   5.99148365001761      2.68110090052421      0.43112294754248
  C   6.66558289912280      2.65053664307121      1.72902693222115
  C   7.19236663956434      2.69245998221346      2.80752094811641
  N   4.99857735960869      1.58259694612014      0.35819017793152
  C   5.45495828647201      0.30743316453429      0.43986822078587
  N   4.75115459354675     -0.76101256454458      0.39310990500272
  C   3.35902231548325     -0.66496981271308      0.23348725982616
  N   2.60760860934219     -1.69973552627138      0.20004375370545
  C   4.88472569408060      4.05720143979474     -1.32006221278433
  O   5.72580397882614      3.78021397009781     -2.24069060596492
  C   3.42468050861965      3.58547829528128     -1.34632500827007
  H   4.00871260856892      3.65913488164540      1.90734060163634
  H   3.48216211199281      4.99406207744335      0.85442595415026
  H   5.97645784301515      4.82993002385081      0.44381588617114
  H   6.70881089226713      2.54613716016348     -0.38712641914907
  H   7.66274752734488      2.72177201421149      3.76004588392785
  H   6.53204401502126      0.22756076072259      0.55914922383957
  H   3.20537528889917     -2.51715310037563      0.30944952438565
  H   3.27737809142418      2.77397906790888     -2.06442227067201
  H   2.68635008627319      4.36617945796727     -1.55453525124697
