24
Coordinates from ORCA-job 10948optt
  Br  1.02676658879966     -0.03512001063282     -0.09822065682500
  C   2.90319684179250     -0.03111648112046      0.03244971504893
  C   3.60819180882957     -1.17691339216297      0.15589839744292
  N   3.07765518756718     -2.50412587371506      0.15825049748040
  C   3.55704917830336     -3.18466743277575     -1.06302222817094
  C   5.10614911480051     -3.13204886438337     -1.15883142722703
  C   5.60744316137708     -2.45918282071186      0.13492871552652
  N   4.96506554977062     -1.16282193953531      0.26039375970658
  N   5.76798416398989     -0.06110758966501      0.12229164239323
  C   5.05006628331285      1.11981357893175      0.08793010926006
  C   5.84007752110616      2.29613464232910      0.04915338609594
  N   6.50686209526932      3.23902294624097      0.01562600023348
  C   3.62292662532684      1.26781564624737      0.03282154783561
  O   3.02061690226586      2.33967495412268     -0.01304974964294
  C   5.09689959819182     -3.31010715141178      1.28553970688050
  O   5.77216207630504     -3.99231624454303      2.00949416251585
  C   3.57434494725324     -3.21960244882920      1.33647172258742
  H   3.08792861492422     -2.69476436871731     -1.91450802692273
  H   3.19420402950923     -4.21297570590414     -1.02392191243337
  H   5.43111547964940     -2.52104821200045     -2.00106787780767
  H   5.54211467438620     -4.12668528885054     -1.26761780361993
  H   6.68198887835225     -2.31317911054441      0.17505011010984
  H   3.26653413675180     -2.69128424495615      2.24091721825592
  H   3.15065654216532     -4.22539458741221      1.36902299127641
