29
Coordinates from ORCA-job 10952optt
  Br  1.34876160477627     -1.76827044501734     -0.37709141081747
  C   3.10212702317682     -1.02173330346277     -0.57203788542132
  C   4.21130345299740     -1.70128315591082     -0.01440005002560
  N   4.17926210110697     -3.04888894756992      0.43798021240285
  C   5.35664090267879     -3.20284892409543      1.29592080193453
  C   6.37944657363234     -2.12581954680145      0.84928603038295
  C   7.50151825568379     -2.61851975656581     -0.09968432789624
  N   7.14549230042232     -3.80351558873083     -0.87088939448048
  C   6.02889007929501     -3.76459732409098     -1.72866337268839
  N   5.86468896563355     -2.97125925849127     -2.70048428939578
  C   4.95059854354792     -4.75295154538929     -1.36917145317744
  C   3.82558343167416     -4.08509897888926     -0.52559678570178
  C   5.45770299618601     -1.12322847278867      0.18954969804039
  C   5.81723897733549      0.14371388828621     -0.20973483583558
  S   4.74026355501692      1.14064794717297     -1.15575052803913
  C   3.11716085287818      0.27124104040605     -1.11745770032990
  O   2.19295731163367      0.92654351002522     -1.57877932553627
  H   5.73041888515472     -4.22847874166607      1.26478140500350
  H   5.06621578552740     -2.99591409153521      2.32966153074462
  H   6.86018969711756     -1.68164529246891      1.72591814556555
  H   8.40033902027464     -2.87535452615292      0.46618031485537
  H   7.76605350528312     -1.80417898435100     -0.77631094821875
  H   7.08238677022907     -4.59833062101100     -0.25417251614092
  H   6.63196710222505     -2.30293630556424     -2.77206862450108
  H   5.38510128505006     -5.59872003002095     -0.82852248361802
  H   4.49127750111024     -5.14017185953548     -2.27846042855602
  H   3.27590569965599     -4.88166883204168     -0.01407091485587
  H   3.13336307219977     -3.62123685964079     -1.22291146910656
  H   6.77014474849670      0.58950500590167      0.04498060541285
