19
Coordinates from ORCA-job 10954optt
  Br  1.25221668176337      0.02636160405489     -1.13869620977348
  C   2.78311459017833      0.13397160934570      0.01729890350495
  C   3.61883314886218      1.24355632885418      0.01354189271693
  N   3.34634587295758      2.62799922047241     -0.03110334455685
  C   4.58152798859972      3.29537633679541     -0.08748256747028
  C   4.61366656777147      4.66274997012664     -0.10628157418771
  C   3.39221481598546      5.38857239583477     -0.03807577261892
  N   3.16152422979648      6.64013753857519     -0.11295304384530
  O   2.23633460791902      4.62812899154512      0.17424609403823
  C   2.16788810548298      3.28498455025792      0.25670516366726
  O   1.14376490730199      2.74331841673854      0.55647948695105
  N   5.59692204533219      2.40734677703863     -0.09775984746308
  C   5.01098768226143      1.22135543517060     -0.04120390614625
  O   5.78976881478397      0.10705245034058     -0.11568594852909
  C   5.29947596923617     -1.14441487236018      0.03501814979523
  O   6.05180201377708     -2.07136487357266      0.02675498827753
  S   3.56618041378576     -1.40277779735218      0.31592313820190
  H   5.55458319027059      5.18386861502449     -0.16710749492956
  H   4.04184835393418      7.12277730310992     -0.26861810763254
