21
Coordinates from ORCA-job 10950optt
  Br  1.19518141031112     -0.17216262790229      0.05205401442754
  C   3.07829064730137      0.03755268827593      0.05423151084978
  C   3.70948860696303      1.28597676709390      0.05498262633554
  N   5.14410493727501      1.25083085037331      0.05603113583638
  C   5.84705170342416      2.46879991725293      0.05632399446099
  C   7.27209068638882      2.37299845608745      0.05653295885838
  C   7.84288859697752      1.13838933720053      0.05666149472006
  N   7.16639771096135     -0.03052045662174      0.05668149099024
  C   5.84247818991070      0.01219487629143      0.05632223932542
  N   5.17418904090074     -1.13371617847834      0.05601317490854
  C   3.82964920165911     -1.11136791588080      0.05491366523134
  C   9.28356322022296      1.03700821567392      0.05674283114637
  C   10.48142048154443      0.97136737988622      0.05617039053848
  N   5.28443751708410      3.62782743858662      0.05638555733122
  N   3.91491214460599      3.64485864494101      0.05635772492364
  C   3.05975104704673      2.57501000492611      0.05519056767912
  O   1.84637435778560      2.77367636944970      0.05452357779509
  H   7.84508509284991      3.28605621094349      0.05658858011883
  H   3.32953873619745     -2.07256629387998      0.05446718591324
  H   11.54157775239846      0.90181919528832      0.05575875226489
  H   3.49052891819137      4.55596712049225      0.05606652634490
