23
Coordinates from ORCA-job 10953opt
  Br  0.59757203563206      0.41285207761500     -0.69441781311605
  C   2.92943031225982      0.05954843883875      0.12028539981053
  C   3.59958776736732     -1.11344606534244      0.04504154851039
  N   3.18310247812037     -2.46244917573762      0.02820779997621
  C   1.93766388184778     -3.03393496396398      0.03296103949212
  C   1.85262779273486     -4.37385453783652      0.00274904190470
  C   3.05269894670608     -5.22307902662278     -0.03501796347315
  N   3.03893287373125     -6.50736944849726     -0.04426186872766
  N   4.28755275243372     -4.56824460054327     -0.06801906338244
  C   4.27519729364350     -3.28680319105469     -0.03679735386401
  N   5.38864694889456     -2.46637650816072     -0.06655094451340
  C   5.01386752053267     -1.14374161365645     -0.02600133398142
  C   5.74557169348218      0.00414373255861     -0.04637096247829
  Br  7.62568359993122     -0.08178380526019     -0.16677103149490
  C   5.07967512169829      1.28674563478001      0.01390533107105
  N   5.57690535895864      2.47233495382709      0.00921909518330
  N   3.68113911187653      1.17688879362037      0.09539278248662
  H   1.10411193432644     -2.34314147542360      0.04685864396729
  H   0.88073570733696     -4.84657274877863      0.00148742939701
  H   2.07507317560725     -6.83134829948488     -0.01985005183742
  H   6.32847383987297     -2.82089348713522     -0.11855891337544
  H   6.58876882787870      2.43359563842699     -0.04955152544285
  H   3.20698102512649      2.07092967783161      0.11706071388783
