21
Coordinates from ORCA-job 10968optt
  Br  1.18811061558503      0.25852640948256     -0.70179970813485
  C   2.99321148655716      0.02178869235477     -0.21977651035494
  C   3.57545439466303     -1.17296940764027      0.04096435381402
  N   5.01943403020955     -1.20474731231668      0.08057834130847
  C   5.71117375884390      0.00684255329030      0.25435136107594
  C   5.02166841684404      1.20367906675894      0.18682102736494
  N   3.70132875281335      1.23630960232564     -0.25858515022779
  C   7.09646496025533     -0.08880605532356      0.40081816912547
  N   7.81811687411425     -1.18856389264791      0.28886303678913
  C   7.19918396447500     -2.35565042202113     -0.03150766708556
  O   7.80807277298786     -3.40460466875864     -0.25504407774102
  C   5.70879255348638     -2.37065821577051     -0.07324058170769
  C   5.04461291169075     -3.57165769625132     -0.19578536944451
  C   3.67565809444951     -3.59877504526143      0.08939303939590
  Br  2.89421110513932     -5.32254920272524      0.29616547502817
  C   2.94943164274469     -2.45510155539808      0.29293193725956
  Br  1.28626375944473     -2.52883625596542      1.20488133082210
  H   5.53596898575806      2.14608382024702      0.28285423536057
  H   3.15465382112095      2.02306688551812      0.06142231744724
  H   7.63236772827008      0.83971869363413      0.58273173217381
  H   5.62781937054692     -4.46009599353126     -0.36603729226896
