23
Coordinates from ORCA-job 10964optt
  Br  0.95231651563910     -0.03721208786812      0.19366470155338
  C   2.84546390402307      0.06632651252467      0.10961954239128
  C   3.51187838592045      1.30252860954697      0.08576172716561
  N   3.09555903215401      2.60084056925466      0.07121008281271
  C   1.97426667017545      3.39946232418165      0.05641245828915
  C   2.46404818435940      4.71611762270482      0.01698612262334
  C   1.74359886495534      5.94791017416031     -0.00957574815912
  O   0.51771321883749      6.06480702908222     -0.00329107526893
  N   3.85382631335021      4.71113315619944      0.00473796396472
  C   4.18822979206079      3.46724888769078      0.03811707470143
  C   5.46824674557619      2.68126820016970      0.02537828148305
  C   6.35749324316651      3.03572644066660     -1.15655957631101
  O   7.21888187047522      2.32251765740816     -1.58691166172923
  C   4.94062532300491      1.25847543482018      0.04708980176513
  C   5.58470914278809      0.05720803859376      0.02499245087165
  N   4.93777371176237     -1.13607040652540      0.04391252387276
  C   3.60001728380519     -1.08933303415474      0.08737609208306
  H   0.97206866416054      3.01836153586969      0.07437501093432
  H   2.39832490558231      6.83904658882663     -0.03702694262568
  H   6.07333808444348      2.90530415189039      0.91427702892221
  H   6.16966707436010      4.03768256846521     -1.58707796900639
  H   6.66716938959484      0.01808561115633     -0.01901714982381
  H   3.08078367980485     -2.04243558466394      0.10754925949039
