26
Coordinates from ORCA-job 10960optt
  Br  0.55018294568647      0.71003392007566     -0.13183964315423
  C   2.79158888100448     -0.08638309411616     -0.49915994451996
  C   3.23108795158438     -1.24697787327478      0.05969475463770
  N   2.58528486090071     -2.54375430948738      0.16577982024381
  C   3.25626448942109     -3.41404707837029     -0.82953106863470
  C   4.71247277837110     -3.65595291675227     -0.27812069232316
  C   5.77079269482805     -3.26480003420871     -1.26193810066705
  O   6.56236719295161     -4.03700895906911     -1.74106522735164
  C   4.67781049966757     -2.79375245520960      1.01663463802533
  C   3.20473945857860     -3.03908125628749      1.41604291561936
  C   4.54203287352288     -1.34843647473577      0.58928426801103
  N   5.43746426321580     -0.40452799755306      0.64127344069306
  C   5.00951364891127      0.78012992013939      0.13732820820089
  N   5.67645217161564      1.91415354039804      0.06650276711508
  C   4.82180973119576      2.79716869839995     -0.52747752441231
  C   3.62044981782579      2.22383226421528     -0.83725587187644
  N   3.72095420498092      0.91958109937200     -0.41859209863978
  H   3.24041299444255     -2.92798099826753     -1.80362623618768
  H   2.72653476635209     -4.36415522469040     -0.90333098564078
  H   4.86462271434043     -4.70664328292198     -0.02787141891223
  H   5.77961704204564     -2.19654551345201     -1.55076619146794
  H   5.46688646315619     -3.00461126501293      1.73301163415033
  H   2.88006930117132     -2.43797021580072      2.26340837661575
  H   2.96434131977646     -4.09172691888756      1.57804101135806
  H   5.11353988913945      3.82079168530396     -0.70415269436714
  H   2.70670704531354      2.59166474019352     -1.26827413651534
