19
Coordinates from ORCA-job 10970optt
  Br  1.07082696179565      0.08478440418794     -0.17537494146221
  C   2.94778232803791      0.03128117136515      0.15127289684870
  C   3.49825490376130     -1.13121428003763      0.68134328621481
  N   4.86349558343848     -0.91962134570826      0.98705474164836
  C   5.68291133516109     -0.20571851823304      0.09084655859892
  C   5.01190900525986      0.96867164998274     -0.37788905972945
  N   3.68737506185093      1.04275918395213     -0.28843174920091
  N   6.72916340269872     -0.92142855464679     -0.29442566339018
  C   6.53491670751375     -2.20754528674655      0.27181509178978
  C   5.47274890566502     -2.10031282314198      1.12123830292753
  N   4.55269756181912     -3.10926436412491      1.08391627502874
  C   3.31842485367900     -2.56357883914427      0.64351775311069
  C   2.89966883865561     -3.53880725511497     -0.28956682190599
  N   3.91487079727211     -4.37646400890005     -0.60811865232504
  C   4.98140447234130     -4.03165052420103      0.13694308100515
  C   6.37557741572946     -3.59329782102390     -0.34914295420688
  O   7.07491656376966     -4.15976273416877     -1.15757011052604
  H   5.52695402483618      1.74135938357356     -0.93055141604661
  H   1.95310127671481     -3.59518943786935     -0.80287661837940
