21
Coordinates from ORCA-job 10971optt
  Br  1.15895074755803     -0.29070359203484     -0.45098600220372
  C   2.99712834617930      0.00068455857847     -0.17552188576834
  C   3.62113337696983      1.22186372906757     -0.08720149647629
  N   5.05121503951775      1.22252064241753     -0.12779199802286
  C   5.75257292895412     -0.02737510000054     -0.03257525054432
  C   5.07077232805380     -1.17703611157438     -0.09684470653790
  N   3.71087845248343     -1.20659364376001     -0.31628736606608
  N   7.12181609606432     -0.01382803606008      0.09180418187950
  C   7.71269443365055      1.10527190527361      0.02808069665198
  O   7.11975811569770      2.30798976639691     -0.15852318759771
  C   5.75943649606157      2.37684346602485     -0.18592249589414
  C   5.16322459701743      3.59977680940460     -0.24700416805812
  Br  6.22681264166073      5.15201139676638     -0.39899564194430
  C   3.74065351401338      3.75329726378232     -0.12855290054329
  O   3.17638545774182      4.85165257369399     -0.12295537002183
  C   2.94873311548833      2.50327136673316      0.04263445912579
  N   1.67432642150970      2.58664740471545      0.28457182202663
  H   5.59904976154530     -2.11463524381066     -0.02489065003036
  H   3.21848458120430     -2.02241869905755      0.01298835153748
  H   8.78559768533554      1.20668441767114      0.11034344637790
  H   1.45037586329299      3.58307512577205      0.27963016210999
