25
Coordinates from ORCA-job 10973optt
  Br  1.00613826557145      0.03956316450460     -0.37596642043601
  C   2.88632151931693      0.10623548260246     -0.37540221449106
  C   3.53322941767895      1.29509502875270     -0.44488779050764
  N   3.01094709287125      2.61718041062864     -0.36142941702035
  C   4.09900939022707      3.39447531313401     -1.02047493385857
  C   5.24602322907270      2.81577956133746     -0.21101351449366
  N   4.90689907085135      1.36335990056938     -0.44232631912173
  C   5.63830892277347      0.27211848961292     -0.11517139197958
  C   7.08757341670615      0.51238490903773      0.21966515956207
  C   7.89351638354106      0.92045990371805     -0.93263952394195
  N   8.53083553264250      1.23979646781976     -1.83109022456803
  C   5.05078078172597     -0.95097815459048     -0.05059769454440
  C   3.62525114692910     -1.14855366604731     -0.24257433565085
  O   3.09607000547420     -2.25878381221162     -0.23844581683551
  C   4.81359787979510      3.06388745642639      1.22702158032426
  O   5.43942412039683      2.49801723128178      2.18640697456758
  C   3.26981740949751      3.00787266631530      1.09451096777747
  H   3.95415728546583      4.45812402684735     -0.84713988981943
  H   4.13732119012310      3.17121495964487     -2.08660600120230
  H   6.27200999669471      3.03284676074398     -0.49327339384528
  H   7.51468954208496     -0.40051581827110      0.63174919423067
  H   7.12357090275554      1.29436452442239      0.98900810180176
  H   5.64008779855807     -1.82820129458748      0.17773620516028
  H   2.75878714911685      3.95990317026101      1.24822170968381
  H   2.83863255012920      2.25635331804714      1.75871898920844
