21
Coordinates from ORCA-job 10981optt
  Br  1.92423830655240     -0.67956882875957     -0.36539798966476
  C   3.60252943737743      0.16318990993149     -0.33718747213956
  C   3.85794058232496      1.42027158692160      0.02603384291131
  N   5.24301096176910      1.76754926328544     -0.03367109690194
  C   5.60622097777179      3.08700464579296     -0.29903850479328
  C   4.55119562231239      4.01825261588926     -0.24269319810241
  N   3.31214076976649      3.78759555681056      0.15824673386156
  C   2.92645412593287      2.50066825928506      0.43508033112067
  N   1.80295871239341      2.19619756033674      0.97980248681076
  N   6.81783714685343      3.49130796289176     -0.67709464026015
  C   7.97801124191887      2.90387460078257     -0.37785900259938
  O   9.06124386614692      3.15222359278423     -0.90289098842061
  C   8.04187966125873      1.93921110769684      0.78339898981777
  N   7.26528766880348      0.98053037059024      1.06398120125650
  C   6.12548660244999      0.72392745885354      0.29916346700749
  N   5.83786641739570     -0.49039226367654      0.05300033675828
  N   4.68121224450329     -0.65085828235620     -0.73734779068343
  H   4.81669049621355      5.03110432250152     -0.52188467735506
  H   1.30239700644439      3.07233250152683      1.13474673985437
  H   8.92077771483207      2.06821935847249      1.41494707512153
  H   4.43762043697868     -1.62964129956087     -0.73533584359965
