24
Coordinates from ORCA-job 10993optt
  Br  1.05412398627859      0.41725821657985      0.23511892834689
  C   2.93015539760433      0.17608837983933      0.15012639185399
  C   3.51686356222802     -1.10786605782644      0.17537851787896
  N   4.91264940424573     -1.04265262998344     -0.01597726370691
  C   5.81613098296376     -2.04041410532997     -0.32721411313935
  C   7.03839874128273     -1.42026450853501     -0.34174801415867
  N   6.94090543947216     -0.09339621102842     -0.07833756231169
  C   5.64322835246379      0.13722251041864      0.08342088741340
  N   5.04903591565606      1.33395361599839      0.24191280371037
  C   3.71765559966348      1.31571956802450      0.20621974260260
  C   5.43507520311231     -3.40692593372037     -0.80323601984584
  C   4.60788112717698     -4.25509738204925      0.19520941283590
  C   3.85401094196354     -3.38601909509601      1.19346056288296
  C   2.91875696946784     -2.34649928070256      0.57195297287684
  O   1.70487127034946     -2.59057420592042      0.52897589941263
  C   4.75107719447560     -3.32410957404473     -2.10867690694890
  N   4.25584417424635     -3.30055475048296     -3.14292315364502
  H   7.98691476859659     -1.88828934810106     -0.56284360609763
  H   3.21987222834897      2.27845269805143      0.25761172049603
  H   6.37553379370300     -3.92117652579571     -1.01622183949164
  H   5.29171080118041     -4.91381690406845      0.73466739771895
  H   3.90884676876509     -4.88567639879796     -0.35579750904252
  H   4.58127672116888     -2.88468721090806      1.83776852980293
  H   3.21818065558620     -4.01467486652128      1.81615222055571
