24
Coordinates from ORCA-job 10995optt
  Br  0.89849822729077      0.37519753230684     -0.04177318682461
  C   2.78048227654089      0.18613882664607      0.04682576033347
  C   3.38012060032523     -1.08359270960786     -0.07826516454056
  N   2.91296334925340     -2.38167317137927      0.06157834975861
  C   1.69037788273974     -3.12221380356329     -0.14895237872080
  C   2.17862975385993     -4.53947341903330      0.20772422466662
  N   3.59097388401180     -4.52169256614776     -0.20055140359241
  C   4.00520104996457     -3.19496970330509     -0.04297398808787
  N   5.14717330112376     -2.58974796018096     -0.12469834904473
  C   4.77258451508717     -1.23452731252554     -0.11864161641148
  C   5.55237984743913     -0.10186738328733     -0.04156137255406
  N   6.93480205202826     -0.09571566073044     -0.08791544914749
  C   7.76759251307459      0.97048272904027     -0.07356842591162
  O   8.99107240698751      0.87101896596215     -0.09677130859917
  O   4.98517844135900      1.13616183829896      0.01744794535736
  C   3.56757434118582      1.34653403235631      0.05375663571561
  O   3.23474629240875      2.51425549962605      0.08369273599572
  H   1.36710031366525     -3.05537657316039     -1.19310199540189
  H   0.88262721489058     -2.77921149225020      0.49333922053304
  H   1.62737640030111     -5.31404737110580     -0.32267319671573
  H   2.07370429697789     -4.69545284222183      1.28680323960106
  H   4.18765766517848     -5.19865480583660      0.25184870191756
  H   7.36943761489957     -1.00869374170659     -0.12555364845144
  H   7.23774575940671      1.92812109180563     -0.03701532987520
