22
Coordinates from ORCA-job 11002optt
  Br  1.29915243742284      0.51974996886254      0.48969585760934
  C   3.15703739706075      0.41611160602779      0.17752824235923
  C   4.05479978819684      1.31179992334437      0.64106027950601
  N   3.81264534553292      2.55541624034010      1.35575401781903
  C   5.15860252227199      2.81478777762784      1.93260400531069
  C   6.06782030241158      2.45768308317506      0.74985078078014
  N   5.90489560942709      3.56381870352231     -0.23111126619299
  C   4.66502554563948      4.07402832980804     -0.52189787882224
  C   3.61256574335191      3.59731604564184      0.38874287870425
  N   2.43074674346570      4.12526776834836      0.25886259206633
  N   1.41903215599256      4.58966089042118      0.13021787414466
  O   4.46467303112637      4.87327497086764     -1.42325456629467
  C   5.41352575186368      1.18095961725439      0.30756271678590
  C   5.83189695056453      0.12448455289705     -0.52249517406094
  C   4.91010501182324     -0.84249218000428     -0.96569436751343
  O   5.08903676524664     -1.84044044876036     -1.63481826218318
  O   3.52725942271857     -0.65153726360407     -0.57326059280409
  H   5.32526114005451      2.13558013007727      2.76642704578296
  H   5.23250271094422      3.85285686839978      2.25443826839452
  H   7.12608535062754      2.38859580398277      1.00120928698375
  H   6.55220625200582      3.62009240035128     -1.00317050111890
  H   6.86012402225118     -0.02701478858092     -0.81725123725635
