26
Coordinates from ORCA-job 11007optt
  Br  1.53453693430864      0.00280415731520     -1.84483914363266
  C   3.07929354453809     -0.26677397809317     -0.79449719700808
  C   2.97812987573575     -1.04660566634825      0.36681340094980
  N   2.23615047585009     -2.28290365239428      0.49650467881014
  C   2.94227965313625     -3.33724239120897     -0.29420057961392
  C   4.23512796593817     -3.67599755255495      0.52043888591876
  N   5.47469560327093     -3.58785424503971     -0.22477279656801
  C   5.71241643453555     -4.39682117045125     -1.26661375437051
  O   4.94895279486230     -5.25484633316180     -1.66853127725225
  C   4.13940105034255     -2.62725912104010      1.63786223363442
  C   2.61971905931967     -2.65932641027003      1.86960085887789
  N   4.24835910691691     -1.31075704783805      1.01383599175799
  C   5.41483295989169     -0.75813617278717      0.64671392675705
  O   6.50919614097714     -1.13513775975937      1.04855464190914
  O   5.33315016153570      0.29310246807532     -0.19006956263601
  C   4.20764218744889      0.53087927413397     -1.05076897471339
  N   4.36444261567128      1.44657058046360     -1.93483264059202
  H   3.17599194972137     -2.95340038169408     -1.28558026373976
  H   2.30401431656211     -4.21442273563421     -0.39043915164362
  H   4.15567754570050     -4.68144793426288      0.94415689473179
  H   6.16791014224656     -2.90365410844932      0.05724706694919
  H   6.69189450624400     -4.21434422852438     -1.73767693001500
  H   4.81819100207285     -2.75069483238292      2.47713661662352
  H   2.27466131875920     -1.91590360235715      2.58441469455997
  H   2.25571087540876     -3.65437202406292      2.12772076947276
  H   5.31062177900497      1.81054486832691     -1.87217838916719
