24
Coordinates from ORCA-job 11009optt
  Br  2.66194805935643      1.12588005228124      2.20705572642782
  C   4.00919884420888      0.39460705701808      1.09467296765132
  C   3.91771265582480     -0.71635667847380      0.35586196440315
  N   2.90156603202711     -1.64073628988223      0.09438435446092
  C   1.82792124104376     -1.99463511427562      0.98711262417716
  C   0.83214955677281     -2.90508178724669      0.28561310815373
  N   -0.33835788383944     -2.98812564655125      0.79179365374654
  N   1.28073616668612     -3.61604716235537     -0.79936938085483
  C   2.52962668174625     -3.36564225184433     -1.51761152116952
  C   3.51518615828433     -2.80063833443495     -0.53035147912638
  C   4.84960587415320     -2.30025494665096     -1.08323375724085
  O   5.53389663247195     -2.95498052833330     -1.86899803548248
  C   5.08483023502158     -1.03802550682769     -0.44170534382372
  N   6.16659179520116     -0.26214083340759     -0.53231251885666
  C   6.21310937901904      0.86649637515117      0.18808974783029
  O   7.08380034823225      1.69776800242525      0.21670322656711
  O   5.11434589780300      1.16465414506712      1.07533000524646
  H   1.27834121108528     -1.11982811126604      1.31816227406631
  H   2.19143792611140     -2.52374896162691      1.88288233958586
  H   -0.91880300717947     -3.65107661393488      0.27854139531925
  H   0.56330785819106     -4.11651122691600     -1.29983115950282
  H   2.38690775988527     -2.64738243951271     -2.33107555186327
  H   2.90323124274253     -4.30167476265004     -1.93316473179673
  H   3.72770933515063     -3.57451843575247      0.22945009208131
