28
Coordinates from ORCA-job 11003optt
  Br  2.22343267804803     -0.81197992973957     -1.90884203983704
  C   3.71476613488299     -0.26948258226659     -0.87199484860386
  C   3.96738323257326      1.00126789029913     -0.50632543878500
  N   3.32021294442166      2.22413834295814     -0.73050617310914
  C   1.87508639337739      2.37745741754576     -0.77576558514964
  C   1.28225917872129      2.50150280396921      0.62281549222824
  N   1.89467253245991      3.58290368753563      1.39236613266820
  C   3.34564277154360      3.42107511815765      1.44769377176569
  C   3.99321653620246      3.25297539192376      0.06701839041843
  C   5.41056848878594      2.68104219095938      0.13796878151540
  C   6.20973056311420      3.18957814151369      1.25345963797257
  C   6.85473387020407      3.65600784309837      2.14837613545047
  N   5.12992104182147      1.26363618984793      0.23258083115229
  N   6.26803643967984      0.45141106454558      0.11548732269753
  C   5.95634268655489     -0.82766717106178     -0.15123088958963
  C   4.71268236256184     -1.34071845601675     -0.57376049354987
  O   4.45194219938151     -2.55079065497385     -0.78437789466796
  H   1.43590322304930      1.55046330205945     -1.32309516606310
  H   1.66697016461172      3.30020894846119     -1.33226438920475
  H   1.44890426168029      1.56519559695375      1.16377088318433
  H   0.20434881440493      2.66901652634626      0.56657300979150
  H   1.67142507443410      4.47022919108070      0.95005352714214
  H   3.56662659213453      2.53087932881897      2.04230302172211
  H   3.78549651555525      4.27739744105184      1.96084501464382
  H   3.96274036186840      4.20444933919957     -0.47465068901892
  H   5.95245929296501      2.89559028995508     -0.79706582740109
  H   7.43896982053488      4.03579861350407      2.95066287602547
  H   6.78752582442717     -1.52258586572661     -0.10509539339822
