20
Coordinates from ORCA-job 11012optt
  Br  0.95604418565654      0.61996557852483      0.04461728697938
  C   2.76405101699689      0.10039961762857      0.04498997055764
  C   3.13128000895808     -1.25092064147593      0.04435688498626
  N   4.50748383954066     -1.35825477542618      0.04489404915027
  C   5.49213451360998     -0.40507435925427      0.04608521620487
  C   6.64403188467680     -1.13566681495219      0.04646665449878
  O   6.32120136206184     -2.52082766658443      0.04550990481546
  C   4.98211068492067     -2.60812156791419      0.04465749657711
  C   3.90005058705108     -3.47153736368380      0.04378691717408
  C   3.39440090372609     -4.81760365530023      0.04304362452752
  N   3.91709915086535     -5.97688284030609      0.04305329675540
  C   1.83490367304005     -4.59847187350251      0.04217622306297
  O   1.04032286850434     -5.50722690909101      0.04116654294366
  N   1.53636433960590     -3.24485712144848      0.04267636479209
  C   2.70798392315782     -2.61944675910346      0.04354694794927
  N   5.10087272441868      0.90085418494115      0.04658383775923
  C   3.77344150103264      1.08012379999277      0.04600118012033
  H   7.68679827927198     -0.89215471478433      0.04725434731435
  H   4.93541430694659     -5.90004543200937      0.04372546257185
  H   3.44701024595800      2.11474931374918      0.04640779125947
