25
Coordinates from ORCA-job 11016optt
  Br  1.36512706185761      0.33137138238682      1.35900047732868
  C   3.06373219275636      0.40296847935513      0.53159091259780
  C   4.01795109500409      1.33864871994487      0.93841292767446
  N   3.78443368089123      2.56501409098194      1.70814536120944
  C   5.16649125197690      2.86007491526718      2.15817208980434
  C   5.99958405985057      2.58041180835092      0.89327634614035
  O   5.83195081308043      3.72875088576850     -0.02753391515513
  C   4.53219898103823      4.07184645901524     -0.04427706187923
  C   3.51992800990370      3.59229404814604      0.73844650373664
  N   2.34244781540879      4.20120518485250      0.41026023414517
  C   2.63676778592656      5.03330168918665     -0.55300670513555
  N   3.97526329469478      5.00089879836468     -0.87032130464315
  C   5.30973780211913      1.35170470993882      0.40179282469747
  C   5.69135319531462      0.41667978552863     -0.53563611866321
  N   4.76846243184555     -0.61191231569777     -0.82263041418579
  C   3.41610403419922     -0.62386555108724     -0.39757782084235
  N   2.59557525650582     -1.53250786029667     -0.82700699002328
  H   5.44508211165772      2.16117220910240      2.94479527650425
  H   5.24410411838456      3.88813749957235      2.51231369330653
  H   7.07565176722604      2.51294176374337      1.03589340572891
  H   1.94873227781334      5.68704735452003     -1.06264814250615
  H   4.44962999345791      5.52131673768330     -1.58630918347534
  H   6.69088537200885      0.29257428250682     -0.92625299635791
  H   4.91270819735132     -1.11915111953036     -1.68073770289824
  H   3.08509739972656     -2.17192395760419     -1.45016169710873
