24
Coordinates from ORCA-job 11014optt
  Br  1.52738879290529     -0.26251811620282     -2.57669169463902
  C   2.86444463849816     -0.32224332476119     -0.52877677978417
  C   3.50838992558335     -1.47791841569430     -0.17799372864978
  N   2.92346057943657     -2.75959791112108     -0.35307580386778
  C   3.86400344612121     -3.83151710370107     -0.59189795832973
  C   2.94434504417605     -5.03868885666043     -0.49388528093473
  O   1.89250091915126     -4.60480299913119      0.36126733514506
  C   1.90040251121800     -3.23051859317507      0.44555372224417
  N   1.11095501242761     -2.55330947917040      1.15205623958389
  C   4.91207390488781     -3.78215467522465      0.50995293150920
  O   5.56822079544648     -2.52740083447835      0.54731352941232
  C   4.84225047183708     -1.40900329953905      0.28415267497696
  C   5.47201116394717     -0.19270342405719      0.43135216728447
  Br  7.25836193638498     -0.09892163053416      1.01632728745229
  C   4.80339258462669      1.04001655013948      0.13112949592023
  O   5.25340842463152      2.17388299402053      0.23916309200806
  N   3.49855707858809      0.84284743892999     -0.34252439870673
  H   4.32581828321946     -3.72215946598896     -1.57439149605915
  H   2.53464981425728     -5.30349273341156     -1.46999171290114
  H   3.41967909597830     -5.91087217489799     -0.04306667136786
  H   0.43533147136695     -3.16594912448088      1.59835433788286
  H   5.69687758854050     -4.52545358799363      0.36362913463902
  H   4.42037952883712     -3.96756396996578      1.47284660131875
  H   3.03309698793295      1.69304273709982     -0.63580302413717
