29
Coordinates from ORCA-job 11018optt
  Br  1.06642856614050      0.35889393078376      0.13294157389903
  C   2.96566125487316      0.23214044299246      0.02585145823384
  C   3.55034749034485     -0.99093761330436     -0.31378838661888
  N   2.68343329144568     -2.06243651740491     -0.66993364833780
  C   2.01147777178268     -2.92205930958633      0.36967532781394
  C   3.00278973747752     -4.11505997210733      0.75671811617434
  O   2.58443515450592     -5.17228326066921      1.25622688486753
  C   4.23305721638908     -3.64856290037547     -0.00682584272021
  C   3.54589760849618     -3.06187108763385     -1.24425690386979
  C   5.67759903055922     -3.75685462962317     -0.41590451766784
  C   6.02597511825411     -2.23243488176709     -0.62929543150319
  C   4.99578751520656     -1.05362395662380     -0.36250369476533
  C   5.67503368515808      0.14162121363558     -0.12966431812333
  C   5.05677080427470      1.34388225315508      0.18028806817138
  C   3.68086408951375      1.38976388889560      0.27766089560828
  C   4.29785436944171     -3.00574669817214      1.45213198765379
  O   5.18662172862584     -3.43972740705993      2.21922928218595
  H   1.12628903255009     -3.35651780835956     -0.09989010066840
  H   1.70098413997357     -2.34304568404803      1.23663222775230
  H   2.95133547473269     -3.84615262040538     -1.72256990293061
  H   4.19371138078671     -2.62886686494443     -2.00664302910812
  H   5.81795673909742     -4.31155124123991     -1.34788462032773
  H   6.31187041727409     -4.18008856608030      0.35726022204994
  H   6.41710287530510     -2.07047018217120     -1.63936268628948
  H   6.84482172072315     -2.00387305181708      0.05199301647628
  H   6.75843392873216      0.11900229810475     -0.16239813155343
  H   5.64791722520751      2.23212491145885      0.36139538158679
  H   3.15699471356966      2.30114943083091      0.52960091381210
  H   3.73454791955815     -2.10841411646345      1.72531585819863
