24
Coordinates from ORCA-job 11026optt
  Br  1.02701741710512      0.09042278865826     -0.15962779959067
  C   2.91492993114074     -0.00049172532034      0.05457440026694
  C   3.70749138932291      1.13137828695116      0.13551865570154
  N   3.11872944989295      2.39980636963500      0.42604090365680
  C   2.07015247126650      2.52373180423058      1.33029954513471
  C   1.36023367667735      3.64563732899691      1.22553594829238
  S   1.96562253668971      4.65398476731920     -0.07395041856678
  C   3.36984111429946      3.58347571362881     -0.25916066843338
  C   4.49809560942058      3.98445349371707     -0.86594622358733
  C   5.83238662918393      3.38726261753905     -0.74315189389128
  N   6.89233725873346      4.06942621137556     -1.08386497058025
  C   6.03457283541142      2.06931002611084     -0.22778333057934
  C   5.12591521012246      1.02419721386107      0.00614096003442
  C   5.64980962151205     -0.30324203417199      0.04558738410524
  C   4.87753425699223     -1.41822434831251      0.09341722270047
  C   3.43751989648984     -1.35757252357433      0.04787501878860
  O   2.71699497074791     -2.36911257170025      0.00735685314217
  H   1.89673847125379      1.71385679936769      2.01967972289250
  H   0.49475724102610      3.92117584750362      1.80101574169310
  H   4.46340258585716      4.95789298993793     -1.34019274303457
  H   6.61418026219615      4.97690407288470     -1.45340575259091
  H   7.08235985332544      1.79222122102377     -0.20582725757829
  H   6.72945290440255     -0.40009788134025      0.00756038019277
  H   5.31592440693010     -2.40839646832159      0.11230832183117
