21
Coordinates from ORCA-job 11028optt
  Br  1.01552832611054      0.12228715923059      0.09171774194297
  C   2.88798785935674      0.05180619972167      0.13635080789823
  C   3.54760764923629     -1.17862707383874      0.18890651484360
  N   4.90894233008850     -1.01402803162684      0.26391543322593
  C   5.71547995272377      0.02580807296711      0.06191529352108
  N   5.06439956450680      1.24558834019676      0.10140451942106
  C   3.63415303938542      1.29444686038768      0.11598645455932
  N   3.00365942108053      2.42988781282692      0.12652609100623
  C   3.77709581895619      3.64801225055502      0.13286891947011
  C   4.24837893713796      3.88209080926561     -1.28156303491865
  O   5.39724623700967      3.79135688790709     -1.63697788106343
  N   6.92924963155793     -0.40158416255388     -0.16757451158231
  N   6.86937691967885     -1.82478951772063     -0.19216634909703
  C   5.62333181505925     -2.12085532201814      0.04671430753184
  O   4.77701518009951     -3.16230242091274      0.01046605952717
  C   3.38493757673269     -2.59450494990578      0.05611029936569
  O   2.46250817488334     -3.36070032845034     -0.00588079237957
  H   5.55634551568696      2.04255583042331     -0.27724046481687
  H   4.64791349025658      3.63700323980280      0.80092484416399
  H   3.12033565859411      4.47029677149190      0.42958672806608
  H   3.44450690185825      4.05825157225059     -2.01999098068544
