20
Coordinates from ORCA-job 11031optt
  Br  1.33808398481370     -0.74509095378897     -0.00019778684330
  C   3.11778764554049     -0.13200620789471      0.07177727758953
  C   3.40637958514714      1.21460509548836      0.16089146813633
  N   4.73719007789293      1.62687920183007      0.24848700334041
  C   4.77097394083354      3.03417077990807      0.06612445381655
  N   3.50354316801086      3.48790614755462     -0.03222121143312
  C   2.68850642163183      2.42673233357460      0.03596819520401
  C   1.27687872098815      2.57685672578268     -0.05602373078750
  N   0.13866724589882      2.72818258262906     -0.12647008464701
  N   5.82237043551998      3.78529518676288     -0.08911171282738
  C   7.07365391217284      3.36816719170970      0.25215289303122
  N   8.16615241137983      3.92022691930108     -0.08541217508215
  O   7.14963598424023      2.32268880454269      1.16880108938102
  N   7.02362769742113      1.03902831490947      0.59237405629531
  C   5.80615625879562      0.73492968986092      0.29408185703160
  C   5.47641498664224     -0.64071495105644      0.01861951643158
  C   4.17949358438728     -1.05017630172116     -0.04418713705952
  H   7.93585419514290      4.69699214229006     -0.70207147269945
  H   6.30214464696851     -1.33397392837919     -0.03240101785038
  H   3.94748509657194     -2.09869877330382     -0.17818148102776
