21
Coordinates from ORCA-job 11030optt
  Br  1.08792459443347      0.12101405386852     -1.51331554930288
  C   2.75956063805200     -0.04135417246793      0.13280173632444
  C   3.49210413841391     -1.19753350241006      0.19628151335765
  N   3.11356790884422     -2.57450855428517      0.15550126264924
  C   4.25385563756291     -3.34727028969685      0.05900682251239
  N   5.31013872947027     -2.48839061072272      0.06272111856294
  C   4.89310370104663     -1.16493130250014      0.13563469993376
  C   5.62468547520998     -0.01028502163788      0.11205719394933
  C   4.90449569621865      1.22951272150425      0.14814340097200
  O   5.39305936002594      2.35592544508294      0.16019006413434
  N   3.50312589191072      1.08985786976909      0.15736722846646
  N   4.40270126601965     -4.62715338099649     -0.01460751939560
  C   3.32287819686543     -5.46801618026541     -0.00316050326558
  N   3.35866096180297     -6.72061943921295     -0.20901590288340
  S   1.68715534693526     -4.85363873026063      0.38896713583075
  C   1.86864145710630     -3.08818537106201      0.49377361255893
  O   0.94853716093272     -2.41402787421111      0.84515851282239
  H   6.25270143425249     -2.82416662900812     -0.03255798754901
  H   6.70127295974396      0.01670561010542      0.04582855140971
  H   3.01376296824970      1.97264375810322      0.08568082296779
  H   4.32506647690272     -6.98957839969591     -0.39145621405566
