20
Coordinates from ORCA-job 11037optt
  Br  1.05171408596977      0.35841783762081     -0.26859828630059
  C   2.91164876953756      0.11809484839342     -0.17892548223636
  C   3.43772352905394     -1.14359168032536     -0.01223590508523
  N   4.82685629592561     -1.31775137136197      0.02888816749171
  C   5.16727441217883     -2.63496771070234      0.18019156463488
  N   3.97493451867311     -3.29076447418823      0.29597899641490
  C   2.85555887004538     -2.45724183047020      0.16343241264859
  O   1.69998573095781     -2.85713246586626      0.19929318529915
  C   6.40909807857197     -3.23456352224201      0.09272905923900
  N   7.58339736793632     -2.69351337251884     -0.30341001071785
  N   7.89232119825240     -1.48251078238515     -0.31860788644766
  N   7.01674626520915     -0.53893418189289      0.35630746687188
  C   5.70415038554664     -0.25595144892589      0.02915595025303
  C   5.17810677458193      0.98685758010420     -0.15279663791944
  Br  6.32663925324979      2.48506701163582     -0.15481077300633
  C   3.74183648655136      1.28680991478706     -0.28825085008527
  O   3.32670138126914      2.43462678678670     -0.45630774277518
  H   3.88589834306657     -4.29065412521306      0.34622777883879
  H   6.41328430472682     -4.31500049533969      0.14934199417907
  H   7.54912394869584      0.31870348210389      0.38039699870291
