22
Coordinates from ORCA-job 11033optt
  Br  1.59312182029647     -0.51814232529225      0.63590646100858
  C   3.24754396421393      0.11032782420044     -0.02354768015682
  C   3.58528637112052      1.40097452992193     -0.12348354346388
  N   4.85076190111458      1.65698724661479     -0.71579425323696
  C   5.09590498170822      3.00847028922344     -0.67188556609899
  N   4.07224027940722      3.58263438928856      0.06902283793862
  C   3.05238180633894      2.67940321877651      0.36384020445661
  N   1.91508131905193      2.89036462023112      0.89626464366894
  C   6.26708019108236      3.54200392695168     -1.10204761237817
  C   7.15505348040473      3.82365785975695      0.09714505667459
  O   7.56337623693091      4.90999047370346      0.50103135074966
  C   7.49768482637379      2.54818256714118      0.69225856876346
  N   7.01165911644197      1.31642004871549      0.46612700814091
  C   5.93744880146716      0.84672199454177     -0.13730112040586
  C   5.56628625269487     -0.49468189492320     -0.16097123112654
  Br  6.52465926218101     -1.77524938976936      0.87378858469188
  N   4.20614808490196     -0.80320258510641     -0.37474515382966
  H   3.96301368629464      4.58194692295942      0.11817457300876
  H   1.80194188285006      3.87345137792527      1.13521065363975
  H   6.76497574096315      2.83104997563516     -1.75841962835666
  H   8.34449081039352      2.57672230197365      1.37607138803192
  H   3.93885918376798     -1.74203337246967     -0.61764554172015
