21
Coordinates from ORCA-job 11042optt
  Br  0.99964427438297      0.14871126027504     -0.34646683124115
  C   2.83816892267069     -0.02086322840290      0.15073904658054
  C   3.46869465227380      1.17859112780067      0.55619367303249
  N   4.80284874154971      0.95608991984924      0.92322960246802
  C   5.65323183055122      1.92715757948356      0.49782083584052
  N   6.84540328342797      1.29354874891657      0.20749997743524
  C   6.64280095779554     -0.11884566356223      0.27485232208169
  C   5.38283852871458     -0.26055981421616      0.76824682762379
  C   4.73819669874343     -1.31147859739845      0.13589846039191
  C   5.83435815251144     -1.92164976543739     -0.58970666502888
  N   6.96371692685461     -1.18391105560986     -0.54320411985159
  N   3.38504211156976     -1.20305597063851     -0.07804730215052
  C   4.85200961936025      3.05213651501003      0.17609903651820
  C   4.77376252195342      4.38192414608690     -0.28193208825716
  C   3.40640820726588      4.60333201134821     -0.46351318555125
  N   2.62074807659917      3.53249345693487     -0.17257158701615
  C   3.48015527192875      2.58576767742730      0.21191624065491
  H   7.61549822517869      1.75574944725086     -0.24241197498308
  H   5.81532453269589     -2.84813991208393     -1.14632851826427
  H   5.57195205738672      5.08730956624598     -0.45125519247123
  H   2.95419640658548      5.52569255072018     -0.80405855781205
