21
Coordinates from ORCA-job 11045optt
  Br  0.79810392857720      0.18040334546007     -0.26478525363301
  C   2.67810143911623     -0.00575506280152     -0.22973985185374
  C   3.23205247136814     -1.23375495171348     -0.37237993625268
  N   2.55309400725692     -2.50296684410750     -0.56693008769523
  C   1.66513117602437     -3.27076705815518      0.17708046450169
  N   2.10322875002030     -4.48569160715573      0.48257422251592
  C   3.38220570469831     -4.49621104929926     -0.03699104511330
  C   3.59318968996257     -3.37418416348732     -0.73317086825092
  C   4.85621993672813     -2.90215007020850     -0.36127321125566
  N   5.53717140443603     -3.87382931119684      0.22098693128794
  O   4.57525000715291     -4.96958737526137      0.39144975255633
  C   4.67220430247912     -1.44330088309564     -0.31141419101256
  C   5.50404856045933     -0.36654859806216     -0.11655215969994
  C   4.99092815686911      0.95754727245513      0.02735196050342
  N   5.71498908110287      2.03060455325051      0.21460166740036
  C   3.49667559039414      1.17258808011897     -0.01999874023792
  N   2.96829638389254      2.33635026441818      0.12124815813615
  H   0.68271249447503     -2.90590527869083      0.43350649171182
  H   6.57631268160051     -0.51220918847250     -0.05778450606613
  H   6.70088113483541      1.77584938647458      0.23532143788987
  H   3.73620309855080      2.99751853953041      0.25289876456760
