23
Coordinates from ORCA-job 11046optt
  Br  1.16906910677932     -0.62209226651134     -1.81832680721813
  C   2.90177977090104     -0.27065157252470     -1.01606939901036
  C   3.13871937049975      0.99832356527429     -0.52592635866577
  N   2.45138343095083      2.19678832697745     -0.09171287056602
  C   2.19721021115126      3.18021775890710     -1.04029752569321
  N   2.55397490814302      4.37544601057372     -0.80652172995645
  C   3.25324303110119      4.37018415471778      0.48500089162374
  C   3.31053737682195      2.90117466825297      0.96435489873688
  C   4.61993525474723      2.12514237790786      0.95331101800189
  C   5.75844938058876      1.75677311486017      1.61868965300220
  O   6.21462745802216      0.51974610465791      1.14116367224760
  C   5.30899072884699      0.08490826872741      0.21622073457686
  C   4.40789721677739      1.08672901710675      0.04899049583444
  C   5.00310298832444     -1.16019442009743     -0.37492064036991
  N   3.76688043948738     -1.25413472615269     -1.03652107661338
  C   5.83479039419387     -2.29075050913360     -0.30021663646432
  C   6.56816081039992     -3.25151039108879     -0.22583218003849
  H   1.68818430977689      2.87496620229212     -1.94834872259290
  H   2.70169252067791      4.98968649176975      1.19480995701798
  H   4.24673486767968      4.80528262983704      0.36448199374321
  H   2.83128941692977      2.79076525732301      1.93881724361916
  H   6.39143051209787      2.20342587079541      2.36414328693720
  H   7.20191649510129     -4.10022593447223     -0.15528989815221
