21
Coordinates from ORCA-job 11043optt
  Br  1.09474236748584     -0.10722494247841      0.67125751647355
  C   2.88079987357650     -0.26630074672363      0.00105501124283
  C   3.52938355459727      0.94767292000202     -0.34524270567601
  N   4.77079556369049      0.72109983506373     -0.89354935319246
  C   5.73380243500142      1.60825771423861     -0.45739792752025
  N   6.96266723806775      0.94395066634471     -0.59871809000132
  C   6.65253423639289     -0.47546806690627     -0.70771751865319
  C   5.31254258662441     -0.51191772818146     -0.96992732193358
  C   4.70760954438085     -1.60306189536857     -0.35106210590209
  N   5.67278383755840     -2.42719895761981      0.10724047956784
  C   6.85641329781929     -1.73154434325130     -0.05346802672544
  C   8.09526688772921     -2.24481525967466      0.40461200826122
  C   9.16416061529925     -2.63402347236974      0.80360222149698
  N   3.38326486224978     -1.48228286511647      0.00956542052139
  C   5.09313112851310      2.66420761752945      0.12819897261220
  C   3.64692729867441      2.31661841973882      0.21544009855142
  N   2.67985270915431      3.00274718770833      0.72331733020792
  H   7.75421916044499      1.25994599302213     -0.06668487342279
  H   10.09905093924944     -2.99648625496465      1.15345383291723
  H   5.52242877595033      3.55301468487203      0.55896761991592
  H   3.04662308754000      3.88480949413516      1.07905741125862
