22
Coordinates from ORCA-job 11048optt
  Br  1.17361001847484      0.19491070993787     -1.27329700274249
  C   2.84981853345825      0.10422793156728     -0.39472327592520
  C   3.59990182834502      1.24830916195579     -0.07765013153970
  N   2.95101326487167      2.48699779412993      0.14449018156478
  C   1.72173884590796      2.63439921367442      0.71251815018908
  N   1.28727142127200      3.87206900741092      0.66600905074318
  C   2.26810180153786      4.56870502534916      0.03081204289203
  C   3.32159769473975      3.74567992145484     -0.29689245646753
  C   4.60984670831897      4.07553052928279     -0.83557644160062
  C   5.74845420545822      3.40295632153236     -0.63294878965950
  C   5.95142492326563      2.21368025597646      0.22636837974310
  N   6.99687762171880      2.09126525489629      0.94566813224369
  C   4.98075460318043      1.08098037712151      0.14270437039533
  N   5.57199459907336     -0.09364156656210      0.19014157382346
  O   4.74121212914147     -1.21519872043420      0.15221292142606
  C   3.44506375797927     -1.18640476675467     -0.32747933671008
  O   2.94774583024290     -2.25503785320217     -0.60444632825123
  H   1.19879369435039      1.79238091372474      1.13226985848780
  H   2.20194432994525      5.63262260791841     -0.13532753452060
  H   4.64970167086976      5.00327489104483     -1.39590485847637
  H   6.66538126771973      3.81138025908495     -1.04598477664523
  H   7.59575125012837      2.90891273089056      0.81703627103004
