20
Coordinates from ORCA-job 11052optt
  Br  1.15457051715870     -0.35274081204976      0.45458471981212
  C   3.01562952419408     -0.15205643899920      0.22642834673997
  C   3.65642354315504      1.05109162920117      0.16397482433891
  N   3.17411706786139      2.35071636743081      0.23849254421533
  C   2.01472644060081      3.06381194901215      0.39222763661550
  N   2.25757892875308      4.35012129052976      0.36535663861125
  C   3.61560267807312      4.49360459375241      0.18857820528412
  C   4.21456164229260      3.25892163587391      0.10688535240276
  C   5.48392417809035      2.53120190018035     -0.06189518415137
  O   6.61400429474351      3.03022564977484     -0.20588815517236
  C   5.09657120318660      1.13377318448829     -0.02061143945197
  N   5.88915519082188      0.04875944662660     -0.13199443305089
  C   5.23890183308909     -1.09898178332700     -0.06277854058335
  C   3.86221514861710     -1.25329403071840      0.10588589532245
  O   3.56959112824273     -2.58578242210604      0.13218985741055
  C   4.78449140638011     -3.17099464190341     -0.02329927642030
  N   5.78898949281423     -2.38989225514398     -0.14113181058753
  H   1.05192246275786      2.59992421401706      0.51665681437668
  H   4.07877341649981      5.46312775436685      0.12852765223971
  H   4.78324990266788     -4.24953723100643     -0.03218964795158
