24
Coordinates from ORCA-job 11058optt
  Br  1.60364531981166      0.04087438506762      1.76752617277976
  C   3.12512038690222      0.07793584822608      0.67949888362453
  C   3.62624616196119      1.13846338062323      0.02548970209187
  N   2.95262292518905      2.33866284529090     -0.13694017359243
  C   1.56910346456200      2.47197599845969     -0.48641605214375
  N   0.78838295627016      1.56311942955894     -0.97356922508274
  C   1.26775109344901      3.84838755065164     -0.24439363946560
  C   2.42069361513063      4.50483209056636      0.13621046747364
  C   3.50340405442572      3.60229407967670      0.15599944519707
  C   4.84519819938115      3.91541629797632      0.33450287259499
  C   6.01892195203269      3.19786231395276     -0.01535614920315
  N   7.24359828781977      3.67159661912849      0.08883363605806
  C   5.96877403676779      1.83910334963995     -0.57615598098232
  C   4.97965422081071      0.93861461274045     -0.53857647374847
  N   5.24734704710897     -0.38478237375073     -0.96528483600605
  C   4.63246876299642     -1.31239462470919     -0.38503170494825
  O   3.70692135918673     -1.16200343889250      0.60750301756212
  H   1.27393268545235      0.67679579175597     -1.08319632044763
  H   0.28923250763323      4.26404628858460     -0.41835409413131
  H   2.53963888887698      5.56137606522720      0.32238463719724
  H   5.01282189729401      4.94024921097288      0.65188671337640
  H   7.20347065858650      4.60554893640922      0.49673340666449
  H   6.91142523548994      1.49963061677716     -0.98933591458784
  H   4.79462428286108     -2.35960527393379     -0.60795839028062
