23
Coordinates from ORCA-job 11057optt
  Br  1.23620848200089      0.03848592736696     -0.85340052355664
  C   3.03278707900330      0.02154304067048     -0.28865249887533
  C   3.72235316257323      1.15309251743265      0.00813785030862
  N   3.11840387124744      2.40036914259572      0.18117263717656
  C   1.90057625501637      2.60170587623220      0.80480933483173
  N   1.44083473717394      3.79482828615296      0.59817076038242
  C   2.36180808621456      4.42192315209374     -0.20798445403666
  C   3.44120887758420      3.60843461241426     -0.46600649485699
  N   4.61562249313086      3.91277487840661     -1.05201228486594
  C   5.73753976238018      3.31464050049394     -0.67307374019074
  C   6.02716130017563      2.19194536510685      0.14601049603217
  N   7.17927147467931      1.94351794244247      0.71761317515685
  N   5.08752693175419      1.06995123225819      0.23155185192024
  C   5.63258869171842     -0.17935646587170      0.31351682981942
  N   5.01799924968565     -1.29453887432190      0.15095883045069
  C   3.67445677242403     -1.29391082478618     -0.22433196534559
  N   3.03265149981683     -2.36751875429309     -0.48771172730214
  H   1.43778357527827      1.82552020493851      1.39041268587104
  H   2.25160081017159      5.44521652647886     -0.52403726313130
  H   6.64707894085234      3.82690603985630     -0.98454855063645
  H   7.78877593466722      2.74179110531242      0.56795559758069
  H   6.68964505839022     -0.16147087306183      0.53952634617439
  H   3.67711695406129     -3.14685055791842     -0.36307689290706
