25
Coordinates from ORCA-job 11050optt
  Br  0.71830623653479      0.40380175406732      0.52665723646587
  C   2.99237835675036     -0.06507546571486     -0.34826821009115
  C   3.58614611516639     -1.26753778633214     -0.12277874859704
  N   2.88154981718414     -2.50641869913265     -0.21500733350150
  C   1.87667214029624     -2.90409401355637      0.65163828485118
  N   1.68125970790530     -4.15850858160254      0.77332876175463
  C   2.63731311536506     -4.81330487832427     -0.11528492553818
  C   3.65933922692293     -3.70934533517918     -0.48699343534801
  C   4.87260968096232     -3.72363409157191      0.45271967347556
  N   5.62472918792683     -2.50831200012868      0.27062119063716
  C   4.98797178887459     -1.28843229059511      0.17167135232330
  C   5.67466169906938     -0.11197075815961      0.27912611519652
  C   5.01804322519010      1.14452722669527      0.07893215182528
  N   5.48636404410491      2.32990968464784      0.14122594787021
  O   3.67269835352501      1.06713328730832     -0.25114886800121
  C   4.10214640298616     -3.80109192427999     -1.88545605997767
  N   4.46459199794322     -3.94714213330182     -2.96301698516126
  H   1.30361962246253     -2.12855938951948      1.14619132214398
  H   2.12663300610001     -5.18231404823217     -1.00803630669783
  H   3.12745732798772     -5.65806389538580      0.37284563228382
  H   5.50885594470085     -4.58057015041114      0.22738373420344
  H   4.47222355462463     -3.83809529977313      1.46898495890941
  H   6.57236321866114     -2.49118470898897      0.60741298733219
  H   6.73554117483060     -0.10516937480129      0.49212931488114
  H   6.47252505392465      2.28145287227245      0.37912220876017
