26
Coordinates from ORCA-job 11051optt
  Br  0.58317351087807      0.60660183764695     -0.20591105582891
  C   3.04984400089227     -0.04956281900425     -0.47770650351831
  C   3.66681895031860     -1.25513983723677     -0.33371748113619
  N   2.97669179546578     -2.49325113738425     -0.44773681294711
  C   1.88679817959912     -2.84335621642907      0.32789771789752
  N   1.66126459018183     -4.08962319638041      0.46990794146198
  C   2.69859399965137     -4.78147583608012     -0.30608480104430
  C   3.74622599666174     -3.70709454117545     -0.64694025022321
  C   4.94715442737212     -3.69918753661469      0.32938254840532
  N   5.71113963736091     -2.49279826919018      0.09717041346136
  C   5.05671440749451     -1.26756541665415     -0.03760349603102
  C   5.75958114299365     -0.09105351475570      0.08375452210628
  C   5.12154384138316      1.17890762790708     -0.05450306202210
  O   5.65099083946922      2.28552035647531      0.04003241536777
  N   3.74947336897811      1.08085274043671     -0.32268996045594
  C   5.80862149450361     -4.89362963230676      0.01403298230341
  O   5.74846748471363     -5.94986861708640      0.58099350211928
  H   1.27715041721346     -2.04469370125983      0.73688173718863
  H   2.25249294104710     -5.18674617684612     -1.21857650370308
  H   3.12415699079514     -5.61329062848038      0.25760307050011
  H   4.12666919062391     -3.76457060284203     -1.66917412838674
  H   4.55219497441833     -3.79819930005462      1.34853452444463
  H   6.57601244958107     -2.42476621358330      0.61300473849117
  H   6.82025016041288     -0.09243349183908      0.29659379015566
  H   3.24879156566792      1.95953250025939     -0.38522868944316
  H   6.50618364232225     -4.73510837752178     -0.83391715916305
