24
Coordinates from ORCA-job 11065optt
  Br  1.54358171227612      0.17021490214935      1.68806640110493
  C   3.20888868336252      0.17255132902177      0.70906390953196
  C   3.64104696128550     -1.02880607275754      0.10140395725125
  N   2.96654219949171     -2.26995395703514      0.13299621977103
  C   1.71697789932264     -2.59695722019379     -0.40410540234268
  N   0.84692909875071     -1.86802370735933     -0.95825173190304
  C   1.63138290595860     -4.09746262397542     -0.21093602507681
  N   2.97339231079708     -4.53830037558713      0.16793583129673
  C   3.64711584599180     -3.47103500768664      0.34738161385619
  C   5.11075818339422     -3.36954603388443      0.61811795847460
  C   5.70390738257252     -2.36603527213626     -0.38448815085753
  C   5.04274336231168     -1.02598363065856     -0.19070540861648
  N   5.76117386235964      0.05479446504458     -0.20105415272247
  C   5.11266288920232      1.22886744683233      0.10267960978226
  N   3.86873088510243      1.27068736472158      0.70071521720276
  C   5.83124847477527      2.43567984560270     -0.01704903931032
  N   6.42479855983292      3.42475137699459     -0.12790567993929
  H   1.13028735975293     -0.88890319135323     -0.95771226952453
  H   1.29276782646518     -4.59085779941798     -1.12151888516424
  H   0.91443571106609     -4.33117554681039      0.58092696404980
  H   5.54654976142254     -4.36255935114041      0.53060887013053
  H   5.27339748481301     -2.99953791931782      1.63430146493080
  H   5.52235938350442     -2.73169051428607     -1.40071277624421
  H   6.77732125618810     -2.24571850676672     -0.25375849568124
