21
Coordinates from ORCA-job 11069optt
  Br  1.19321373881402     -0.11651031776558     -1.03283891596996
  C   3.00739217546653     -0.03518182675203     -0.49877307416945
  C   3.59299881574298      1.14253647137762     -0.14855964476049
  N   2.93872163132642      2.29969589989202      0.23149775229894
  C   1.86606191464331      2.36145220910537      1.17512832549082
  N   1.30337370687251      1.41272882553143      1.84681357826961
  C   1.63671642612095      3.76441992847633      1.26761425636239
  N   2.51356203778908      4.48409744892119      0.56640270358219
  C   3.36509197024497      3.62858861294187     -0.02263711475208
  N   4.38957344013323      4.01019049259725     -0.74802249693715
  C   5.49030080750373      3.30038042567404     -1.04681575818743
  O   6.29012665341148      3.63669683084966     -1.90113381431664
  N   5.87741125932304      2.08956273350487     -0.33684925036941
  C   5.06219080903720      1.15247773212464     -0.11606165243627
  N   5.57293732015582     -0.12211202392597      0.18585099921523
  C   4.87309885874706     -1.24257091815411     -0.10045720821404
  N   3.64985205683657     -1.24934979431625     -0.49613893575085
  H   1.68465569457020      0.50004165251016      1.61673106388714
  H   0.86693085642455      4.20970422413424      1.87832534414458
  H   6.57321952173229     -0.15825960256131      0.32362798272614
  H   5.40157030510399     -2.18158900416546      0.02029585988674
