22
Coordinates from ORCA-job 11068optt
  Br  0.96585809853456      0.44672156812653     -1.20278095816331
  C   2.89347160582315      0.07411724818996      0.14300508888555
  C   3.46675005750060     -1.16060151232600      0.05312726015199
  N   2.93315021182870     -2.45414220328824      0.00258013082364
  C   1.74273732479140     -3.15010603340015      0.19011876541312
  N   0.55702076263461     -2.75728884551363      0.31260510012138
  C   2.16862373518407     -4.61888895606648      0.22800184325898
  N   3.59718889555873     -4.59844635944962     -0.09551737159084
  C   4.01759532529134     -3.29356588571632     -0.06576935974628
  N   5.18139296774159     -2.73335465198557     -0.08491870766018
  C   4.87942133341556     -1.36611762913547     -0.01730439741497
  N   5.76109260689021     -0.39633631841826     -0.02219472190991
  C   5.22222583667883      0.82809754874711      0.06473659813165
  N   5.84244058776506      2.00449268485984      0.10648380514371
  C   4.82376255845775      2.87671765939444      0.22303235840191
  N   3.60555986536234      2.37826005505133      0.26322678574007
  N   3.84082213134622      1.04873021363805      0.15488405091390
  H   0.47812147076752     -1.74320649513954      0.20230666270062
  H   1.59409285509208     -5.18890099888912     -0.50025336659126
  H   1.97728581995053     -5.02339265245992      1.22407102423203
  H   4.21317694816140     -5.27967981408643      0.31615175675302
  H   4.97720900122366      3.94389137786753      0.28440765240519
