23
Coordinates from ORCA-job 11061optt
  Br  2.23029218768729     -0.81837931026783     -0.56423635714560
  C   3.86984309521048      0.07618189451344     -0.30774875833025
  C   3.93757530492244      1.43715384314876     -0.07134392196070
  N   5.20545395098461      2.01569309254220      0.08415650459585
  C   5.00233275448026      3.39437646217357      0.33093951346067
  N   6.06432139583400      4.31296338721308      0.42531931823040
  C   6.80881255843832      4.35834292239775     -0.79593495593777
  C   7.91137472061423      3.63863668604021     -0.92975439949534
  C   8.30401713014265      2.76552212919616      0.22658712734126
  N   9.30774577569192      3.07611538317971      0.97672924318291
  N   7.57635001507286      1.65797227957947      0.43947393171066
  C   6.38982786316454      1.23604809791001      0.10138890692995
  N   6.25028593881923     -0.08131515401196     -0.15995928178776
  C   5.05873705260480     -0.62662618518036     -0.35903601929600
  C   3.68177943405870      3.67816045978688      0.32923652154464
  C   2.92366672435912      2.46852504659820      0.07566820142452
  O   1.69273247043331      2.33022861106545     -0.00603102663507
  H   6.68402005474388      4.08142218481672      1.19660093065069
  H   6.39382219084807      4.99328311763207     -1.56948220711686
  H   8.53362773290288      3.68038896855357     -1.81481310446129
  H   9.73700908909807      3.92225175348498      0.60990388023926
  H   5.04017286910279     -1.69200593736388     -0.56731744679933
  H   3.26819969078548      4.66306026699174      0.46865339965514
