21
Coordinates from ORCA-job 11072optt
  Br  1.27464338708894      0.10214352085395     -1.56161322902173
  C   2.92576625703229      0.16899655392430      0.06327287367194
  C   3.70736325876998      1.30303643132950      0.11544223797937
  N   3.37259086349268      2.67646434536151      0.06329313391189
  C   4.56042253244904      3.37790922454113     -0.04406915279630
  N   4.46161008152058      4.75095402137560     -0.08921582440839
  C   3.26323043443348      5.42413725114464     -0.03546476435229
  N   3.06809437691620      6.66109837051549     -0.19752156311133
  O   2.18918402720018      4.65348477447069      0.26197721201750
  C   2.18150997851639      3.27052198466987      0.38467039026665
  O   1.18838074917329      2.73450510331876      0.74182041369332
  C   5.63091720646058      2.55097231895380     -0.06753130188670
  C   5.10740962258163      1.20291745193305      0.02987372842631
  N   5.79971681201756      0.07663908943580     -0.00004666031985
  C   5.08178826556127     -1.07727471302014      0.05988747259823
  O   5.54960363450224     -2.20503203518787      0.08974719345594
  N   3.66082302332355     -0.95771625711137      0.08344450087599
  H   5.29388530826993      5.28333001400596     -0.27069558622891
  H   3.93370886342327      7.14568168544479     -0.41177381273762
  H   6.66650053303867      2.83271540606259     -0.15872438775507
  H   3.18485078422814     -1.84748454202212      0.02922712572107
