21
Coordinates from ORCA-job 11076opt
  Br  0.47697389436615     -0.69925734925579      0.03424905428558
  C   2.88055993067051      0.09949724691420      0.00329371720052
  C   3.66556768132964      1.20398522170139     -0.02435380194993
  N   3.37017711312512      2.55814924342332     -0.03787998586735
  C   2.19644606961148      3.25531690478568     -0.03646743469251
  N   2.16638165946928      4.52829738403418     -0.05098049296596
  C   3.40840497503964      5.24724945940666     -0.06700259465889
  O   3.36776639640134      6.45766911744539     -0.07268517745220
  N   4.61274563873948      4.55896345551300     -0.07652868356894
  C   4.57762496953513      3.26484958225692     -0.06157678305841
  N   5.63373101217241      2.39550299855605     -0.06534994810685
  C   5.09729613107307      1.18530427798558     -0.04337904746327
  C   5.72317901499976     -0.09755634833832     -0.03520987764315
  C   4.89926060426147     -1.19592260264933     -0.00728164832556
  N   3.55350065620741     -1.07782418524566      0.01027879318752
  C   7.14005217607208     -0.25216292501542     -0.05444195984871
  C   8.33240889361482     -0.38185460521901     -0.07111012970961
  H   1.29187502178635      2.65079214471431     -0.02396460608366
  H   5.29787245592516     -2.20046208070319      0.00155549170115
  H   2.97133718492315     -1.90706362077429      0.03121331464335
  H   9.39083852067609     -0.47647331953582     -0.08737819962310
