21
Coordinates from ORCA-job 11075optt
  Br  1.00762221466646     -0.05910562735437      0.08167543877647
  C   2.88004402802770     -0.00883610929585      0.07896759957189
  C   3.59144779686858     -1.14370879956442      0.07694302148367
  N   4.96919797269328     -1.08512813112755      0.07559611424031
  C   5.43801227969652     -2.36348959608890      0.07398872513087
  N   6.76839019128914     -2.50189072350771      0.07278461514873
  C   7.69586027152925     -1.42853002034743      0.07322012937810
  O   8.88915554008854     -1.70824493459759      0.07197628215958
  C   7.15039149021476     -0.07576698665799      0.07505885122761
  N   7.93097200403759      0.98358069548740      0.07571569922057
  C   5.71132703304356      0.08131234949270      0.07624422624697
  C   5.00808098470204      1.25091288072871      0.07795447800371
  C   3.56152373672315      1.31136379639098      0.07916468206251
  N   2.84299662084152      2.38123909364083      0.08031753991491
  N   4.51804784822208     -3.29993615623365      0.07388667896030
  C   3.29604366877442     -2.63778394913539      0.07562626278635
  O   2.19742945747452     -3.13539808794445      0.07596340563689
  H   7.15828116860310     -3.43302285403289      0.07163646747402
  H   8.89517440121011      0.65037308559345      0.07472922502582
  H   5.57487044498780      2.17174064905874      0.07839125713639
  H   3.45513084630584      3.19531942549538      0.08015930041431
