21
Coordinates from ORCA-job 11078optt
  Br  2.01382790362728     -0.67724612833009      0.38179426242491
  C   3.73403976267594      0.10061298610050      0.24038592153654
  C   3.93468079158050      1.46161307626287     -0.00027226465379
  N   5.28365286290155      1.91209536487923      0.12932122290007
  C   5.45300379873361      3.27470186540375      0.41515712732266
  N   4.56714332382228      4.14518600328150      0.13038938120575
  N   3.50129835999845      3.70218012749028     -0.62210517836036
  C   2.96646346590417      2.42194278146492     -0.45920520128140
  O   1.79181354125405      2.21790678797737     -0.72847333669111
  N   6.53887468373489      3.72795022766047      1.17435326091242
  C   7.72704019481303      3.42708306090016      0.86848980867714
  C   8.15198559517111      2.54740938315108     -0.25987883454076
  N   9.14830302325018      2.98183183080480     -0.94188472045972
  N   7.56470369520944      1.33603350784275     -0.37118099831610
  C   6.35607290158468      0.98331988318431     -0.00733605012602
  N   6.09438999623347     -0.30917825334816      0.17966775507704
  C   4.83091213808281     -0.71391996758284      0.38559030014757
  H   2.78978582174624      4.40923429278438     -0.72623635820441
  H   8.52801020870379      3.85588165762050      1.46875618469150
  H   9.35570345824240      2.30430084797002     -1.67651075531509
  H   4.69129447273005     -1.75993933551783      0.63317847305315
