24
Coordinates from ORCA-job 11070optt
  Br  1.36366528805683      0.09889166435787     -1.43322210729269
  C   3.02550796011496     -0.02941140264549     -0.57765420358001
  C   3.55554341870571     -1.17060091648663     -0.10971788893336
  N   2.99280081488497     -2.41558068631133     -0.01047757010303
  C   1.66587936500907     -2.85412961422596      0.33842990755414
  N   0.70475799043462     -2.13481958143201      0.84240185678736
  C   1.67127464711629     -4.28980312632551      0.12747826068456
  N   0.66575751741031     -5.12696706897947      0.30461864628258
  C   3.02758257909707     -4.65943428236334     -0.23044842470380
  C   3.77827559037454     -3.53681744784972     -0.27380485174367
  N   5.14127229583500     -3.30361744789888     -0.48620710938728
  C   5.78680316908404     -2.18340283833847     -0.04079779267050
  O   7.00146132348377     -2.09968533433194      0.05930771761271
  N   4.93826535931843     -1.14522245482974      0.28380098160780
  C   5.47013835664853      0.10273725643549      0.66526808825342
  C   4.86061143269478      1.22210212697753      0.29408985466165
  N   3.72925348877580      1.20173329394373     -0.53520030293414
  H   0.98407738096541     -1.16666900026436      0.96238936848459
  H   -0.14002796268424     -4.57059872413000      0.59094733405212
  H   3.37740008504090     -5.66858378773793     -0.38006898463151
  H   5.74013376346000     -4.09856927179301     -0.63426231931725
  H   6.37111280342892      0.07820209338990      1.25562320858181
  H   5.21991024653184      2.19393714766158      0.59588442465218
  H   3.11154308621237      1.99230940317774     -0.42237809391767
