22
Coordinates from ORCA-job 11081optt
  Br  0.93902109264562      0.45725699593825      0.08301091043145
  C   2.77434103876770      0.04283799198361      0.03427658004933
  C   3.33413902478728     -1.24716920187881      0.08476603093226
  N   2.84799192755380     -2.55031878065474      0.17788245715988
  C   1.65984356986315     -3.27318059310488      0.25586800326325
  N   0.44621228837123     -2.94425689026514      0.27602891953894
  N   2.07676022624177     -4.62891068021893      0.31756812773772
  C   3.52234989337130     -4.80555714538180      0.27474888353053
  C   3.96021882364041     -3.38508079492398      0.18177568884796
  N   5.08267329921890     -2.76877983785119      0.10383862220620
  C   4.73722421098219     -1.41721454292483      0.04017405862360
  N   5.62915459875213     -0.44019552057079     -0.05268891508796
  N   5.02270479923591      0.79138825132204     -0.10106248247231
  C   3.67576768213450      1.14281706682784     -0.06775626922676
  O   3.37907540659665      2.33924041578864     -0.12590086803193
  C   1.22135787931739     -5.67729586990608      0.42344753516668
  O   1.59447213765860     -6.82867362447994      0.48937360189012
  H   0.33291711167696     -1.93624554926366      0.22566548646210
  H   3.81388643888215     -5.40531565197803     -0.58982551478044
  H   3.87816704998206     -5.31064498060759      1.17484553733160
  H   5.65142398045021      1.57363576125848     -0.16906114739228
  H   0.17129751987007     -5.36433681910843      0.44302475382006
