21
Coordinates from ORCA-job 11082optt
  Br  1.77395897944106     -0.46776885007049     -2.21757733664622
  C   3.44895024886925     -0.15926469133656     -1.09723576834501
  C   3.86418913011194     -1.30527799364442     -0.37302862785334
  N   3.08603343402949     -2.48231955813091     -0.17298415798745
  C   1.78442163613532     -2.41096942133242      0.44061860285593
  N   1.33086802578866     -1.38334581035767      1.02652390620829
  N   1.01137019300458     -3.56101506598849      0.33672922002395
  C   1.59984948309603     -4.68499617723302      0.10361505739242
  C   2.99623775300327     -4.83557434208067     -0.08377871047588
  C   3.71864843604659     -3.68915839614077     -0.24633510224240
  C   5.22207530958702     -3.71624911476802     -0.38527662321768
  N   5.87985691202978     -4.72517341302405     -0.79194310852590
  N   5.86124753766919     -2.55395187935753      0.04719341650337
  C   5.21467185332281     -1.48015334394995     -0.10786131597507
  N   4.35750763410903      1.01173706580162      2.05041931368325
  N   4.89660516346325      1.82226275904753      1.56806829118106
  O   3.95144118880465      0.91391555066193     -1.19043146476542
  H   2.01820623016012     -0.63501257396296      1.04579913171719
  H   0.96181008929066     -5.56649962282473      0.06772499692792
  H   3.46880119843541     -5.80455702804843     -0.08882740631825
  H   5.24324956360139     -5.45962809325963     -1.09041231414076
