26
Coordinates from ORCA-job 11099optt
  Br  0.88318650511098      0.15461287688259     -0.04199371896851
  C   2.77302724228713      0.04613999057845      0.06133471423177
  C   3.36087346191072     -1.23395190730058      0.06219362786075
  N   4.72586925162583     -1.12367129729157      0.08933251616609
  C   5.38402457408151     -2.27002571618446      0.04301853204743
  O   4.47241208849526     -3.27172252416819      0.01828797988969
  C   3.14241447122550     -2.64243233103088      0.02756651213593
  N   2.08641317766642     -3.36669583086194      0.01575569106103
  N   6.67424514430161     -2.06459108881312      0.00246225327456
  N   6.82526448079569     -0.66087806749565      0.01888007243139
  C   5.61389989621417     -0.11868976484845      0.06018992700641
  C   4.99595343372415      1.17966424433274      0.05807777215924
  C   3.58906699261280      1.20919575035162      0.07468703274621
  C   2.89842112769556      2.55887573178513      0.07805534271799
  C   3.81703328019425      3.71859625781437      0.44380330262286
  C   5.11232127158525      3.65232624403054     -0.35319204523368
  C   5.87504454789324      2.39571226317979      0.04117607620552
  H   2.33923812942860     -4.34989045437186     -0.01507643029244
  H   2.05222996934667      2.52561219843009      0.76559593093659
  H   2.46591091184033      2.73288178871931     -0.91417039271083
  H   4.05805799631817      3.66995153264676      1.51123416789550
  H   3.29442452820264      4.66334778409090      0.27538006792842
  H   5.72539522082080      4.54038092434834     -0.18279649011729
  H   4.87287004871581      3.61879035873084     -1.42124107172155
  H   6.32843504581904      2.54702201034705      1.03092157065408
  H   6.71196720208782      2.21443902609819     -0.63948294092716
