22
Coordinates from ORCA-job 11093opt
  Br  0.61272332472925     -1.07669337086688      0.53534995851474
  C   2.85797772629435     -0.01210150448039      0.06791388654680
  C   3.40919036930132      1.19931995191313      0.33828618746591
  N   2.99570004036406      2.56199199362830      0.18625906178851
  C   1.76105451891399      3.15824464992922     -0.00720973946241
  N   0.59144560811726      2.69727772037039      0.04475752254607
  S   2.17648943398814      4.85626511332927     -0.39306413253455
  N   3.85652881705435      4.62479754698338     -0.34068061707928
  C   4.08213738743954      3.40377083095502     -0.04504929778572
  C   5.36886968400770      2.64387236635658      0.23640393107140
  C   6.50466292468087      2.32504504538722     -0.76136411704853
  O   6.84104675502740      0.92596645707835     -0.52605344388793
  C   5.65399444895017      0.34213471328333     -0.12161136547274
  C   4.80350013573200      1.26862946083653      0.33059069114889
  C   5.14911858499223     -0.99598558878894     -0.34044391181514
  O   5.75648337194849     -1.99798730473283     -0.68404645743538
  N   3.75167179899695     -1.02858936589184     -0.11211841779758
  H   0.56637749858119      1.69670792556019      0.25994527736691
  H   5.77361187850584      2.99886858528842      1.18936130251120
  H   7.40873240763512      2.90703983354700     -0.60801235800775
  H   6.15670107459791      2.42820962417337     -1.79275342849962
  H   3.34998221014147     -1.94778468385898     -0.26046053213376
