21
Coordinates from ORCA-job 11097optt
  Br  0.40146638912095      1.58030666302469      0.09798927033082
  C   1.91286576084504      2.68977761320997      0.05592044971859
  C   3.14836171166517      2.16403174560277     -0.04642671347131
  N   4.28119423590844      2.97185776683283     -0.07148937073202
  C   5.41391132552109      2.20639171783455     -0.17003825452107
  O   5.01987637324455      0.88543510695364     -0.22276053520928
  C   3.65211741954207      0.78930302032824     -0.14784445360687
  N   3.03263953797620     -0.30980826843285     -0.16967763462035
  C   6.71929875469619      2.51251746517080     -0.21502365795013
  O   7.28682829943306      3.74067341865034     -0.17342090466020
  C   6.57680304279621      4.90576923009757     -0.08323041359156
  N   5.31028814883578      5.13439741900635     -0.00490353362972
  C   4.22159877823621      4.37618636200575      0.01410374399193
  C   2.92177707706466      4.89043761004698      0.11695450118938
  Br  2.77321312748259      6.77192771028558      0.24212089749005
  C   1.69802305700261      4.14404604390405      0.13995613873176
  N   0.47779603998143      4.59081379134481      0.22527740369073
  H   3.70056268460550     -1.07491664515266     -0.24626007312904
  H   7.43696072697368      1.71295036405180     -0.29610186002382
  H   7.27226513514038      5.73257594648260     -0.07876383561740
  H   0.48915237392815      5.60532591875215      0.27361883561951
