24
Coordinates from ORCA-job 11104optt
  Br  1.09005529329821     -0.28247472462797     -0.78152236229885
  C   2.91039254248361      0.01665453381580     -0.39548918101196
  C   3.77324576934273     -0.98033501931226      0.01927290290704
  N   3.58035913674950     -2.31204163182527      0.34056817209407
  C   2.62897597333511     -2.93412801461672      1.13049160652941
  O   1.55543884425513     -2.47317208287348      1.44219542098365
  C   3.23711522710288     -4.24883183551088      1.58650183661340
  C   4.72910648568003     -3.95688593734246      1.54781314291940
  O   5.61239262541200     -4.42574168841192      2.27196746339463
  C   4.88852930092544     -2.99816948184413      0.40120416124111
  C   5.93871441478360     -1.89625621020863      0.48417765585975
  C   5.15129473435313     -0.66644969096591      0.10262957369405
  N   5.66360175259394      0.52182438452877     -0.12137097825526
  C   4.80208421809113      1.49123510160682     -0.46293263821141
  C   3.44649472064686      1.28646555738062     -0.61832975979241
  C   5.03208229065385     -3.98821977034318     -0.73909652153075
  O   4.07459584992620     -4.51789138843412     -1.32661046727539
  H   2.96897459958482     -5.02193731731916      0.85033023668401
  H   2.87649026608184     -4.52848338055205      2.57318205382602
  H   6.76359278621738     -2.06621542444644     -0.20910072740118
  H   6.34618214575411     -1.80364076307330      1.49470234813196
  H   5.22522444158271      2.47451215705816     -0.63443145140708
  H   2.80209929450188      2.09459809739270     -0.93443702810811
  H   6.06295728664381     -4.37441547007495     -0.83171545958611
