23
Coordinates from ORCA-job 11105optt
  Br  1.36212476673885     -1.03204694722136     -0.41167013284776
  C   3.07301901708719     -0.26788318477032     -0.16313636912144
  C   3.23173946073892      1.08885717394716     -0.05140150211608
  N   4.53384970998281      1.61528702191332      0.14185969379054
  C   4.40261412502702      2.99140683182447      0.30473282819382
  O   5.38456083754319      3.80275730801343      0.70083472030566
  C   6.67716135638182      3.78925751120288      0.16553182655323
  C   7.22920837244645      5.09534945018944      0.00455033532136
  O   8.36271619564128      5.36477777693975     -0.37916978045820
  C   7.39586543736304      2.63761422138616     -0.01949620872377
  C   6.98241170347111      1.31536208488006      0.07192158440115
  C   5.67400727693686      0.81302647291836      0.11959779981155
  C   5.43982420581100     -0.56984959625635      0.04850864300572
  C   4.17849623040200     -1.11675566947885     -0.08773450595385
  C   3.10127808884520      3.37114015330206      0.19412632478789
  C   2.28333077607125      2.20760612073205     -0.03981240447740
  O   1.05645936215741      2.13843443968227     -0.18485489001833
  H   6.52273928710366      5.90622728504349      0.27004961257894
  H   8.43373865204160      2.82772106789340     -0.27289356128780
  H   7.74270205618952      0.55097202858659     -0.01507740992866
  H   6.30998847196893     -1.21160474818261      0.05513747917319
  H   4.04084101780027     -2.18573900347937     -0.16610787931237
  H   2.74632359225054      4.38108220093396      0.30750379632260
