18
Coordinates from ORCA-job 11114optt
  Br  0.90104656439482      0.47193462581145     -0.08443138165010
  C   2.75071633899716      0.14256621129066     -0.07965869257682
  C   3.27047775159499     -1.12371797146114     -0.07784986825829
  N   2.72260104315239     -2.42437934891113     -0.07821208487916
  C   1.56743473056414     -3.15839175173256     -0.07948968446486
  O   0.41362518524629     -2.85745705928451     -0.08174281146229
  C   2.09899249074037     -4.62026341479823     -0.07750161674735
  O   1.47884707815422     -5.62394929541642     -0.07790185034407
  O   3.47252927917361     -4.57698668186440     -0.07538387601534
  C   3.83437307220977     -3.26620921810753     -0.07553372619847
  N   4.97357334206065     -2.72441798499626     -0.07351061180394
  C   4.68152866208794     -1.32977473306195     -0.07473303979746
  N   5.59914827082556     -0.40461937662517     -0.07284900532669
  C   5.17287534933261      0.89781651236302     -0.07397173689946
  O   5.96194590195738      1.83542586580180     -0.07199487643660
  C   3.67823370838548      1.23479292545396     -0.07781949550872
  N   3.28837712041453      2.46722417517138     -0.07922649485948
  H   4.13767411070805      3.03740652036704     -0.07718914677090
