22
Coordinates from ORCA-job 11116optt
  Br  1.05002682695925      0.19500631291495      0.20453782603087
  C   2.90332950999066      0.08538269755390     -0.02153833125793
  C   3.61420403745190     -1.11892099188555     -0.06963938322731
  N   3.28803689773414     -2.48827910223916     -0.02473320763631
  C   2.15929630659335     -3.35746916833980     -0.09110188121265
  O   0.99461183102237     -3.06143831522310     -0.19434025445738
  N   2.71722368643380     -4.60112216293079     -0.02040217098603
  C   4.12671458791851     -4.58696885354840      0.02290053372449
  C   4.92293779125731     -5.74049982225060      0.03019869934703
  O   4.49574934868914     -6.89677378628646      0.00935983454245
  C   4.43662550027199     -3.23573104989457      0.02041242582573
  N   5.49028496235147     -2.39629976794235      0.01656205161829
  C   5.02188416665915     -1.07724834883563     -0.05997710602966
  N   5.79716437773291     -0.03044013007670     -0.07642186025351
  N   5.05190874151636      1.13583030391585     -0.24909137845615
  C   3.66957764365960      1.30118480554963     -0.03826274464631
  N   3.14062005336223      2.47548224663093      0.07660625230183
  H   2.17753289751399     -5.44567669952646     -0.09086113722434
  H   6.01284184690379     -5.54513735302296      0.05442540071262
  H   6.45869711840942     -2.65675857324455     -0.00944819736794
  H   5.60099715678964      1.95203766804220     -0.03968094442130
  H   3.86173471077890      3.19284009063972      0.03549557307353
