22
Coordinates from ORCA-job 11111optt
  Br  1.42476492564458     -0.85365764808283     -0.29055488879867
  C   3.14196994533271     -0.12447101881105     -0.15059908904591
  C   3.39514842883237      1.20261817948419     -0.12179725617041
  N   4.73929589713348      1.62179159809488      0.01933535753188
  C   4.68858839814628      2.96810161669484      0.13007275339906
  O   5.75035572407942      3.74746976745974      0.44054227272055
  C   7.03570581052225      3.67133810048584      0.00148970174367
  N   7.74675830740686      4.72973627537575     -0.09640821919897
  N   7.57497323194482      2.45377346567145     -0.26367295490108
  C   7.11372456500154      1.14623555246741     -0.10927469024048
  C   5.82569498919226      0.73689485314567     -0.00658112370660
  C   5.52494947659213     -0.67978920916231      0.02058706369779
  O   6.37955534709231     -1.57491569918124      0.05594993869992
  N   4.17798718147642     -1.01478890480380     -0.04268913040302
  N   3.49032253211353      3.48249191096141      0.06848695750935
  C   2.60198775596074      2.42784466295062     -0.10873439300537
  N   1.31327904286333      2.48594868625920     -0.23232249072765
  H   7.16662578241436      5.54063335591746      0.08677956927858
  H   8.53829152254240      2.55082703555769     -0.53907591011205
  H   7.87451119019672      0.38368486755996     -0.13571020996385
  H   3.99017794134882     -2.00448379459847     -0.08406236648905
  H   1.04033200416257      3.46471634655358     -0.16676089181769
