20
Coordinates from ORCA-job 11110optt
  Br  1.17393843077246      0.20641638580591     -1.01254966081590
  C   2.83884267619163      0.09789809381372     -0.14060263041261
  C   3.48502227903654     -1.11404123612235      0.12648089814363
  N   2.92066006959241     -2.40122818487791      0.14603963133300
  C   1.64640649515994     -2.87282190791367      0.39190887024503
  O   0.68890557895361     -2.30092159852231      0.86254574512442
  C   1.68720850526098     -4.32308940706731     -0.02016730368518
  N   0.76299803879809     -5.18313008971977      0.05355572430615
  N   2.97412403319651     -4.56291995261886     -0.47476212293502
  C   3.76919245848062     -3.46142364861288     -0.21057909807823
  N   5.03241997463876     -3.44302630074155     -0.20374964231116
  N   5.59289904715683     -2.28746021515435      0.31376189446773
  C   4.89189766429796     -1.07351843103309      0.24341672747537
  N   5.61818585857156     -0.00054423286987      0.27140335995786
  O   4.90002239251990      1.20015439429910      0.37111557124545
  C   3.57576483735988      1.31701284425705     -0.02420143043065
  O   3.17001133954104      2.44398060812778     -0.20150270166682
  H   -0.06356594747803     -4.71655923067892      0.42812424922328
  H   3.36933561903930     -5.48880434903771     -0.48828744473999
  H   6.56473064890996     -2.19597354133297      0.06104936355364
