18
Coordinates from ORCA-job 11112optt
  Br  1.30243520564935     -0.18738562749385     -0.32327364651084
  C   3.16197318614238     -0.05720789074998     -0.12328559522028
  C   3.91866043046063     -1.21165278123556      0.10843782477370
  N   5.26659770000621     -0.93387690606730      0.22602826801054
  C   5.80132426243247      0.28745293600780      0.12833809417599
  O   7.14406551380692      0.12062910156312      0.29254020169208
  C   7.36756357789898     -1.23307052352216      0.47690900701884
  O   8.68946919416987     -1.48208837595039      0.65818137633727
  C   9.13284014023531     -2.73986420108019      0.77320466436257
  O   8.46347141998404     -3.72462330643748      0.73683689756866
  C   6.21114887456398     -1.92527630312329      0.44250673902318
  S   5.39055257164308     -3.44617468285672      0.54021804329955
  C   3.67902064198895     -2.59949733909090      0.25112887606446
  O   2.68725911972884     -3.29941919745476      0.22613971043619
  N   5.18307963242709      1.38347129027061     -0.08113443206339
  C   3.76813265414324      1.27121281488434     -0.22937438300424
  O   3.11429262250115      2.27731280550303     -0.44113307283827
  H   10.21911325221746     -2.71094181316630      0.90773142687399
