20
Coordinates from ORCA-job 11118optt
  Br  1.10257550157799     -0.25450342943936     -0.07751041198210
  C   2.96050749077709      0.03402200030224     -0.07775070954217
  C   3.56727191303316      1.23060222903196     -0.07770762806762
  N   3.29736630963775      2.61175979872103     -0.07755352881426
  C   2.21992363598167      3.44851160081847     -0.07706057837746
  O   1.04127362025661      3.20336109321181     -0.07688881982054
  O   2.73719569809365      4.71084052056096     -0.07703022049810
  C   4.13265999196716      4.64983186484894     -0.07731459738184
  C   4.52213169579183      3.36214569814296     -0.07763587983647
  C   5.60932739257919      2.40777042672147     -0.07788007934278
  N   6.96617782503781      2.38350102483779     -0.07804947830597
  S   7.42556450011619      0.73766523607276     -0.07824993275436
  C   5.79098517914730      0.06691045340159     -0.07812565739610
  C   4.98701565108885      1.17401931016034     -0.07791500726555
  C   5.16190325614807     -1.20955037377608     -0.07818401050885
  N   5.63627846571347     -2.41294134533817     -0.07838948718132
  N   3.73968508210920     -1.11149580036461     -0.07796478917054
  H   4.66105597139997      5.58255685001402     -0.07728134246425
  H   6.65059872416626     -2.37390892138488     -0.07851984644079
  H   3.27450209537674     -2.00509823654325     -0.07798799484890
