22
Coordinates from ORCA-job 11124optt
  Br  1.29963641884427      0.08552449969660     -1.16606997658696
  C   3.03868522096962      0.11692013634105     -0.35224563614341
  C   3.61019444166555      1.36972601729833      0.01075863698596
  N   2.84973556153029      2.50723892750243      0.36823261371433
  C   1.75788420357418      2.52079727669620      1.23815154699604
  O   1.30259704539985      1.59597528879605      1.85390683208463
  S   1.19131927175335      4.20943707864515      1.21728262648897
  N   2.44041351502506      4.76095418923837      0.23134875451181
  C   3.16384160153307      3.75399098043489     -0.11234298672799
  C   4.38401644767766      3.85109768557256     -0.96843465181178
  C   5.64411168024130      3.62027699671305     -0.15216314365034
  N   6.59967992581358      4.43954826858695     -0.04217594415457
  O   5.73247979762311      2.47991693321429      0.56031309679941
  C   5.00726410610397      1.32432334392438      0.25485184691121
  C   5.68274675078283      0.14017263607337      0.24832113107853
  N   5.09351166767861     -1.07224644992911      0.02069195820953
  C   3.79566082388116     -1.02367215019070     -0.33686253221783
  H   4.42424384098931      4.83928339371918     -1.41844027421028
  H   4.31532274175235      3.08361031803039     -1.74520705509527
  H   6.39324565568197      5.28372482127505     -0.56651327077012
  H   6.75253527153480      0.15178252886268      0.42559140592770
  H   3.34287400994402     -1.95938272050118     -0.65099497833956
