20
Coordinates from ORCA-job 11129optt
  Br  1.41456702907664     -1.20618176885058      0.74406523781035
  C   3.19252998934092     -0.70021219137735      0.42280431503505
  C   4.14319345488599     -1.66978729497801      0.12774445311383
  N   5.41009903688144     -1.11370065056953     -0.07817374661607
  C   5.71941284670216      0.19603230574448      0.02055161428060
  S   7.46437770790507      0.21857392618976     -0.29123310195777
  N   7.58768620151089     -1.46288492516959     -0.52235147440244
  C   6.41740733416838     -1.97280316626713     -0.36926649246450
  C   5.79809054573001     -3.33994280156832     -0.43808112465272
  C   6.42766066032674     -4.40825346477701      0.45550811633863
  C   6.58697596505730     -3.97703508474649      1.84492740487786
  N   6.73720793477410     -3.65240395974475      2.93360304430295
  C   4.29834221420549     -3.07681987349816     -0.05276836842185
  O   3.49907651777170     -4.01763394175995      0.04263614151371
  N   4.88265323900360      1.12668935366741      0.27729095712763
  C   3.51786252157775      0.72704965660780      0.47637751602662
  O   2.68398684479333      1.58775808760845      0.68203517853356
  H   5.83215400244695     -3.71201225832657     -1.46576346237787
  H   7.40801555079423     -4.70907491413182      0.08339894616846
  H   5.75970040304723     -5.27235703405259      0.44169484576396
