21
Coordinates from ORCA-job 11128optt
  Br  1.17055228456004     -0.04632208476892      0.93869757145322
  C   2.96551213597722     -0.08120699406872      0.41393326977952
  C   3.67750954217520     -1.18505653625442      0.12178940744274
  N   3.40646058693582     -2.55068056374889      0.07892939552013
  C   4.62217155434991     -3.14435375111976     -0.17859953512446
  S   4.72114139536356     -4.85981483747681     -0.30497757251241
  C   3.03333189711671     -5.34071738442568      0.30538040270872
  N   2.91203873837137     -6.51779673223712      0.77341087310442
  N   2.03510054968426     -4.46072337336909      0.14370706078616
  C   2.15670092977397     -3.18482182301468     -0.04357417076907
  Br  1.22557966890394     -2.44753958123629     -1.88077362334024
  N   5.63125739788433     -2.32788822280706     -0.29895383356994
  C   5.09149495221885     -1.06292230543065     -0.12691556509695
  C   5.71749286479097      0.14533015698331     -0.12579992313395
  C   4.95681878127415      1.34258414590707      0.11907918363916
  N   5.34676282630511      2.57285155934748      0.13906805490876
  N   3.60200387551788      1.12521304359964      0.39032799859295
  H   3.80529799202368     -6.99763194561815      0.81528360381369
  H   6.78164801143534      0.22545871052984     -0.29397221639411
  H   6.33813539427303      2.62147272203865     -0.06979643576261
  H   3.07098862106457      1.96256579717031      0.57775605395426
