22
Coordinates from ORCA-job 11136optt
  Br  1.06836168783108      0.07492569993786     -0.04138328283378
  C   2.93932433281210     -0.12200508593182     -0.03535266756541
  C   3.65702676921272     -1.27565382740626     -0.03382354083547
  N   3.17634045469628     -2.58331527811245     -0.03447963217731
  N   1.88005482824055     -2.92490382253957     -0.03461855775042
  C   1.89306391001909     -4.26188662921516     -0.03454917421602
  C   3.18944081260298     -4.78814266204045     -0.03433164096007
  C   4.02360910244878     -3.67541092387393     -0.03410150725411
  N   5.36763660771095     -3.57412820995536     -0.03317624853630
  C   5.85376389382946     -2.34280039362792     -0.03162890717377
  C   5.09938930406246     -1.15041714737937     -0.03129961694083
  N   5.73473172237946      0.03437478789377     -0.02909835834091
  C   5.01447227054348      1.18123571083005     -0.02898000541972
  N   5.47477898053759      2.38622926108457     -0.02546283153011
  N   3.61306533341029      1.07386881408279     -0.03304769899333
  C   0.66931868485214     -4.99597795961938     -0.03408560937850
  C   -0.34085102348539     -5.64489805817240     -0.03230483161042
  H   3.49298271496557     -5.81900309431470     -0.03405692052028
  H   6.93270760650246     -2.22849627392008     -0.03050541952214
  H   6.48830371841161      2.32324405060467     -0.02284116343663
  H   3.10326188980722      1.94102986301969     -0.03338317949888
  H   -1.23878360139090     -6.21286882134453     -0.03148920550559
