22
Coordinates from ORCA-job 11139optt
  Br  0.86271840447332     -0.33735080971839      0.18755439805994
  C   2.71263807665013      0.00733583174813      0.10816579547546
  C   3.22652693258503      1.30957903270304      0.00381268167488
  N   2.63032980515260      2.57308712889563     -0.04032636125551
  N   1.38565540273102      3.06128420276402     -0.00287121381106
  C   1.61046119718716      4.37228859845801     -0.07746545951786
  C   0.46985039398753      5.33968414723850     -0.03616740714548
  C   0.31977089369570      6.12399640750237     -1.26539925695619
  N   0.17454649269492      6.75180301368547     -2.21310773962786
  N   2.90690305277354      4.74471577913595     -0.15690966709847
  C   3.52699227902222      3.57766955619084     -0.13307413156157
  C   4.91739236182174      3.02001897187250     -0.16512596020305
  C   4.62270286984722      1.53083125385233     -0.06277040143895
  C   5.45480114752420      0.46984917507726     -0.02190323970466
  O   4.97551536750895     -0.80961690439550      0.08517386466057
  C   3.59097248389915     -1.10109401268735      0.15216563296432
  O   3.32005420050506     -2.28077375263324      0.24145587117674
  H   0.59599905829171      6.04398196235259      0.78873234980318
  H   -0.45081968065001      4.78004413656336      0.12795466357617
  H   5.51351631749138      3.38996100104550      0.67057657659215
  H   5.43151118617170      3.28706039534469     -1.08984966199647
  H   6.53296175663568      0.50864488500426     -0.06562133366629
