21
Coordinates from ORCA-job 11135optt
  Br  0.94237900365617      0.09278290737333      0.94847857457412
  C   2.55019370985633      0.09017902958545     -0.17447933127860
  C   3.45733153120380      1.13263983112550     -0.08559619558913
  N   3.25560297335457      2.49441230956268      0.00281392433203
  N   2.20906621683420      3.34124456479125      0.00166230032820
  C   2.80360145456386      4.53532477420564      0.05635345683799
  C   4.20905207097376      4.47768825803573      0.08429873229385
  C   4.48200173158435      3.11025321112472      0.04656897887827
  N   5.49963968151391      2.20630335753615      0.02914335315969
  C   4.88556505147335      1.02830241316820     -0.04120186589759
  N   5.56993034451945     -0.16937645802091      0.04400713240077
  C   4.95062333007157     -1.27041879951132     -0.09479307152183
  N   5.60325128569355     -2.49068235220830      0.01284332624495
  C   6.96454162588110     -2.71615352854110      0.17664038499186
  N   7.91060747395693     -1.89206508049428      0.30179002382745
  S   3.22976483407967     -1.48187568587909     -0.49575568706157
  H   2.18356978832356      5.41968630890163      0.07332911072061
  H   4.90799818762788      5.29346481887756      0.12490697904296
  H   5.01840003089786     -3.30765044358650     -0.04205260420866
  H   7.17705209955417     -3.78690601125953      0.19112923136147
  H   7.55882757437978     -0.93415342478683      0.27791324656316
