21
Coordinates from ORCA-job 11143optt
  Br  1.07054173446020     -0.11794509699279     -0.05725138287378
  C   2.94350088120889      0.03542685474624     -0.06378687060775
  C   3.68247004141125      1.16716382865523     -0.06568198245448
  N   3.19527974415869      2.47641236657273     -0.06592255161227
  N   1.88766694316758      2.84078547310295     -0.06713445852415
  C   1.96597121805398      4.15627628393539     -0.06757425280146
  N   3.19996930202099      4.68519983584086     -0.06679306701149
  C   3.98665276921133      3.60169970096651     -0.06591616820338
  C   5.38109191172465      3.48807681910319     -0.06554873392664
  C   5.93358562134848      2.20500997355052     -0.06639376340518
  C   7.34985180926636      2.05983678705376     -0.06621963632615
  N   8.49542160253322      1.93499837025054     -0.06616501760476
  C   5.13834960473694      1.02420744709928     -0.06723034745862
  C   5.66304704999142     -0.25310508409671     -0.06890586286757
  C   4.84766308710631     -1.42028622717205     -0.06912096180799
  N   5.17241198873612     -2.65539199438046     -0.07175135121950
  O   3.47744474819183     -1.20449949906316     -0.06553773089079
  H   1.06911957366980      4.75728678658244     -0.06854822566293
  H   5.99008975749742      4.37758998628824     -0.06509368120219
  H   6.73433988403030     -0.39682264119068     -0.07027350688996
  H   6.18553072747418     -2.72391997085207     -0.07415044664894
