17
Coordinates from ORCA-job 1114opt
  C   2.56725091186665     -0.74351248168655     -1.30701160084327
  C   2.23960994202259      0.18423467280644     -0.13661176829483
  C   2.80684177729098      1.54998954193906     -0.25000267825721
  C   2.26381895245771      2.71628008833405      0.26940272554678
  C   3.26160533327868      3.73469522452359      0.31552621459796
  C   4.45786955923864      3.23790530374688     -0.14945171329616
  C   4.29443939495626      1.76081793194891     -0.37516041723285
  H   2.14971364602853     -1.74472809528044     -1.15304268065508
  H   3.64992252030623     -0.84826667283153     -1.41080932873500
  H   2.17939923661424     -0.33551659580098     -2.24449129879948
  H   2.64139375987158     -0.30470239762065      0.78154140008026
  H   1.15542285476144      0.24330120784480     -0.00219900505026
  H   1.22844259535682      2.84528749594022      0.56216059971765
  H   3.08133984359307      4.75841720465436      0.62243828341393
  H   5.39985260742482      3.76721806488216     -0.19193598437208
  H   4.74553219845046      1.38460218359542     -1.29792035672278
  H   4.78954486648127      1.15897732300424      0.45056760890242
