22
Coordinates from ORCA-job 11144optt
  Br  1.93370263012874      0.28659080010919     -1.86887874902980
  C   2.96134525852042      0.14384091522297     -0.16110956341170
  C   3.82230274745729      1.20471299395861      0.15779815550440
  N   3.28209531895382      2.56053119636553      0.18405284157306
  N   1.93886036992493      2.61639799118209      0.30308791826342
  C   1.65687485034368      3.89286351398618      0.26831587606641
  N   2.72758937315858      4.69517558363773      0.13675363848074
  C   3.75163056917593      3.85441707729770      0.08894355589747
  C   5.11091147869890      4.54458211183277      0.13599860068216
  O   6.13586682290978      4.02927873718680     -0.72095027779873
  C   6.23337325510577      2.70283826842269     -0.54557855858284
  N   5.84493746263895      2.19432109061569      0.53061306312947
  C   5.17832215511035      0.96292076892133      0.42104016010724
  N   5.84549716457989     -0.16247380059403      0.50208336528038
  C   5.21565863738981     -1.37024038014798      0.45206561613699
  N   5.78092770684527     -2.51023437848834      0.56867676656813
  S   3.42712396022111     -1.46388271369096      0.24788604716647
  H   0.64212359890059      4.25041121789185      0.33824344000415
  H   5.46467000040847      4.56058312112615      1.16608405059385
  H   4.93235167821894      5.55953135195117     -0.20426026427487
  H   6.54083485463174      2.16980918136633     -1.44747451485655
  H   6.77400010667693     -2.34497464815350      0.73460883250013
