24
Coordinates from ORCA-job 11149optt
  Br  1.48273929826337     -0.22312927116675     -0.83165355014564
  C   3.39925959737230      0.11916076077751     -0.55325711293264
  C   3.80978179615057      1.26801000605113      0.14009899830404
  N   3.18754408704190      2.52273141453224     -0.09678350295762
  N   2.01838325629563      2.87806831285299      0.50971020365754
  C   1.87083840043707      4.12483432393980      0.14564351441309
  N   2.86790906652539      4.63488882193583     -0.62225603321162
  C   3.67504866078229      3.60553975650111     -0.74521802506621
  O   4.80229480420372      3.68677548079772     -1.45564274546105
  C   5.94472763809187      2.86595770783904     -1.18970221662845
  C   6.48215863388578      2.98147105781562      0.23298872918639
  N   5.60434419968856      2.45262840651198      1.28437226217163
  C   4.98979073106607      1.23099757076148      0.87352319185567
  C   5.69450250776958      0.04147907201334      1.02350810260681
  C   5.22781449308671     -1.16008397971455      0.43550141216777
  O   5.69525796975747     -2.27387329813163      0.51487419443502
  O   4.07596031427584     -1.04312500035270     -0.37379074334042
  H   1.01134994652332      4.70247087452882      0.44790181522326
  H   6.69602200454199      3.24395209133388     -1.88267608735680
  H   5.73095114291209      1.82715487782426     -1.44395437773365
  H   7.42339697105427      2.42493283632682      0.25472952345568
  H   6.70122135078172      4.02619627957998      0.46244377531170
  H   4.89154666316735      3.13731401449801      1.50634800472421
  H   6.59115646632501     -0.00235211705596      1.62129066732131
