23
Coordinates from ORCA-job 11156optt
  Br  1.11461804593416      0.06208805091265      0.29421503805873
  C   2.99113568375043     -0.02574719457929      0.10381099648603
  C   3.75153998164485     -1.19306044201747      0.06750215228966
  N   3.23137894656627     -2.49281166739928      0.04141405323633
  N   1.91288270767983     -2.81322289478465     -0.04722417113580
  N   1.82742241619858     -4.10344383128823     -0.05684530970237
  C   3.05007724724520     -4.65475236266615      0.01924139029169
  C   3.99228268172437     -3.64176575159025      0.07678439191749
  C   5.39895524339729     -3.56676412347364      0.12179653636072
  C   5.96134586771311     -2.32612546856996      0.09852635173800
  C   5.18487545710536     -1.14237719723042      0.05994867032865
  C   5.80947912970649      0.12353295371392      0.03555316514444
  N   5.00496672544190      1.25927821536582     -0.01557062254417
  C   3.62191258137653      1.28033845408584      0.05532080086936
  N   2.95631673952350      2.38630698780660      0.06809513389376
  C   7.19011419874440      0.31716555581939      0.04125790604507
  C   8.38919905455131      0.50912912482147      0.04377638109494
  H   3.20262774638865     -5.72027994449120      0.02059954653668
  H   5.98602057720815     -4.47271825496607      0.15367428832878
  H   7.03798920792259     -2.21132364543524      0.11484846412261
  H   5.47007828682550      2.15093332043317     -0.03290056907763
  H   3.59500794486948      3.17782622015668      0.02586548744254
  H   9.43877352848192      0.66979389537636      0.04830991827446
