23
Coordinates from ORCA-job 11159optt
  Br  2.03608150988834      0.40587592122150     -1.61883733125171
  C   3.19319898483008      0.39612992619143      0.02904558606126
  C   3.71356216924842      1.64094219286871      0.42424243069767
  N   2.91160442844048      2.79983938834322      0.45192202558940
  N   1.74486379145507      2.85011302077537      1.09941224834044
  N   1.24213544803998      4.02901344074483      0.92243547694248
  C   2.09110788932196      4.75863174542589      0.16164123421256
  C   3.17512212517889      3.98161081998259     -0.15677194348983
  C   4.38609063323899      4.25028429468719     -0.98421802365586
  O   5.52013454032317      4.67593724230391     -0.23982310839530
  C   6.28596872434617      3.64430844369135      0.30510130139936
  O   5.56640653314193      2.87081625646892      1.23033946005691
  C   5.06181436247077      1.69266848246253      0.73057214089450
  N   5.91165025887130      0.70515750182516      0.57230609914311
  C   5.41919011780838     -0.49344121563113      0.14794899950863
  N   6.08490876065171     -1.53632651402266     -0.14273542294220
  O   4.02972916949609     -0.65513369417439      0.06318460731885
  H   1.88046723929813      5.77910269935046     -0.11064233621806
  H   4.15692655528958      5.06684980999023     -1.66771230697773
  H   4.63526304599586      3.35977119102889     -1.57427586826937
  H   7.09740070447044      4.13295251264759      0.83986964255517
  H   6.67502097515822      2.98559903171772     -0.48011665503088
  H   7.06535203303594     -1.31270249789936      0.00311174351061
