26
Coordinates from ORCA-job 11169optt
  Br  0.97456967901612     -0.61657034046606     -0.79983030167881
  C   2.86137139636159     -0.38710342473681     -0.51711011724117
  C   3.64904701857242     -1.53647916725840     -0.18306247239953
  N   3.03151820565385     -2.80427275708747     -0.26869208892090
  C   3.61058896531523     -3.91953840796843      0.40148488959172
  C   2.77143117231072     -5.10730093952603      0.72146219078369
  C   3.90104967294927     -5.24367488205385     -0.26561441212051
  C   5.20142111918327     -5.73103176222922      0.31702529159480
  O   5.41015417724123     -4.94618780640225      1.48590048531059
  C   4.81011557267940     -3.66675506663732      1.29358842830947
  C   5.72833363685987     -2.68891372226925      0.58272711269975
  C   4.98593706939907     -1.43417832806078      0.19217064735030
  C   5.67740196303205     -0.23239607458187      0.22123038029896
  S   5.03925862869203      1.28215127825579     -0.34389328606150
  C   3.26844705002630      0.94349660255045     -0.63441302881010
  O   2.60467351975996      1.93690274594523     -0.91986772804422
  H   2.03059174727280     -2.74474087032515     -0.15461150699885
  H   1.76950175680810     -5.10322990561496      0.31216194668974
  H   2.88046727031340     -5.57620796486247      1.69269810390473
  H   3.68116697824504     -5.37899626073628     -1.31439814539711
  H   5.18782487337910     -6.77658912939873      0.63450511404783
  H   6.01850730013816     -5.59414160528766     -0.40113076367003
  H   4.53307957434784     -3.29257460421687      2.28155044353116
  H   6.13801646584900     -3.19012109839953     -0.30313583403160
  H   6.57128508940713     -2.43823551275004      1.22931040463710
  H   6.69624009718695     -0.19231099588197      0.58194424662448
