18
Coordinates from ORCA-job 11166optt
  Br  1.51911999173571     -0.08694338482031      0.26309282299741
  C   3.35213472926778      0.14059330826613     -0.03146094317166
  C   3.92861089961333      1.18360333611291     -0.65498265817799
  N   3.27301423384008      2.27159301330606     -1.25060719323762
  N   1.95967546844218      2.39137548637489     -1.54654140933003
  N   1.82184589587772      3.56107897051757     -2.04298805678673
  N   2.97609338089252      4.24261957401817     -2.09630096955512
  C   3.89190281462319      3.43161492166709     -1.60640962760761
  N   5.22536253288739      3.61265532370876     -1.48610828476708
  C   5.85638694331630      2.54142106421114     -1.10756943938817
  N   5.32140099675975      1.34614361295704     -0.76032166833536
  N   6.25612276505473      0.36370461690180     -0.48351876190753
  C   5.75872510670278     -0.87355487082676     -0.25848708183246
  S   4.36996667621827     -1.11219552186812      0.71197535413557
  O   4.50077260976777     -0.73505341176947      2.10564389396009
  O   3.79429312163389     -2.41068703857345      0.45437955477946
  H   6.93666549183862      2.53200955360426     -1.04618454469283
  H   6.47390634152794     -1.68297855378774     -0.20461098708232
