19
Coordinates from ORCA-job 11165optt
  Br  1.02015263732816      0.05221508174759     -0.46769491470290
  C   2.83082265271779     -0.19071805625525     -0.09073251884345
  C   3.52862410164841     -1.34509936426717      0.04374132959955
  N   2.96384220471483     -2.61622590403037      0.11617027190655
  N   1.71393226207535     -2.67822628933797      0.71834475927308
  N   1.11204961682840     -3.75138089257105      0.71640028858270
  C   1.68183952475840     -4.88661855348084     -0.01754647589198
  O   0.89526992483280     -5.70135759506944     -0.44219892814753
  N   3.02672102439584     -4.93767086512596     -0.08229225438378
  C   3.69102564923870     -3.80747662480615     -0.00140174989486
  C   5.15024130995704     -3.75493521124860      0.02141072335380
  O   5.83912016603272     -4.79172154202982     -0.02216413534047
  C   5.71221065313537     -2.43211321179828      0.09184591106549
  C   4.96746903012111     -1.29469462069780      0.08572997511830
  N   5.57483823316801     -0.02566482860180      0.09320769231810
  C   4.84076558912413      0.99292775531706      0.02977808275830
  O   3.48557021280175      1.03460839139202     -0.06522388498738
  H   6.79143466544763     -2.35023642997015      0.11457341539315
  H   5.24707054167351      1.99738876083400      0.04505241282334
