20
Coordinates from ORCA-job 11160optt
  Br  0.91678895746630     -0.11935944527862     -0.34720240394814
  C   2.79432465206728     -0.07236113887640     -0.14302569719717
  C   3.60754070583833     -1.14699422350210     -0.01060118977184
  N   3.18171347849852     -2.47876208378168      0.08261338696502
  N   1.90866542836188     -2.90839026072336      0.21762962682709
  N   1.94556020978160     -4.20484787502355      0.27755527164709
  C   3.21166493976535     -4.64037524450271      0.18725257249602
  C   4.05044770756180     -3.54140348304498      0.06718254692811
  N   5.37884751464809     -3.42050298824284     -0.02104404291600
  C   5.86629944377300     -2.17958241856496     -0.03811227266217
  C   7.34829573244602     -2.18293632393259     -0.12842495726394
  O   8.11206235757392     -1.25858387862328     -0.23274131296533
  C   5.07406018731724     -0.98701788659381      0.01699118748580
  N   5.69685924298558      0.17183100798092      0.08773241195392
  C   5.10583852858535      1.38334061336996      0.11356908046964
  N   5.68764819961788      2.50378572338187      0.30624525115583
  S   3.34929772290364      1.57220167366561     -0.21038162340151
  H   3.47471428837795     -5.68264455297783      0.21979567711127
  H   7.71827069925970     -3.22767261130167     -0.10328667476005
  H   6.68310000317050      2.31327539657203      0.42325316184636
