26
Coordinates from ORCA-job 11177optt
  Br  1.29128313498771     -0.34646306332422      0.73959383726903
  C   3.02232399261717     -0.10302104311045     -0.19707928002666
  C   3.83210577873522     -1.23851026994237     -0.37235485252611
  N   3.49950417234853     -2.55110533058906     -0.69410108996694
  C   4.64513945086107     -3.13076037402455     -0.86297711617442
  C   5.17610813775380     -4.53409661880682     -0.91120303692043
  C   6.61690058694396     -4.26684916520242     -1.40205822190387
  C   6.94875345143758     -3.04405266831000     -0.52283198490260
  C   7.08654943273978     -3.54042834270900      0.93317404258221
  O   6.57970024787577     -4.85529605133066      1.09395651495940
  C   5.29333750545312     -5.08553873464087      0.53524814225590
  N   5.72207766393035     -2.28677826409960     -0.68904295020372
  C   5.22554025199679     -1.06522839819106     -0.30501798125533
  C   5.85480148049473      0.12675555375211      0.05965476130184
  C   5.03204615448049      1.23439037074921      0.35383476185083
  O   5.35795968630318      2.34315901129267      0.73072589482394
  O   3.63313859361468      1.05429887998923      0.16504728223188
  H   4.59498938644033     -5.20382682751827     -1.54134321758509
  H   6.62597156931733     -3.98880054146278     -2.45473850221738
  H   7.29194014743740     -5.10181513967902     -1.22555703435501
  H   7.81946569929200     -2.47259095802149     -0.84134778867467
  H   6.57245390389561     -2.83763033606289      1.59945991900182
  H   8.13539806810262     -3.60069935162688      1.22515710639621
  H   4.51768915772529     -4.63468445626385      1.16309344590071
  H   5.17343151655495     -6.16949897406965      0.54826079184976
  H   6.92239082866038      0.24207109320277      0.16044655628869
