19
Coordinates from ORCA-job 11189optt
  Br  0.81597423459280      0.09992013682793      0.00855413922455
  C   2.69126257149010      0.05208598716296      0.00500827160024
  C   3.46220140063969      1.18132551961540      0.00486731549960
  N   3.05655658715795      2.50203692069066      0.00522884261743
  C   4.15944147057525      3.31867846061769      0.00519145714693
  C   4.26444940794786      4.69501168660094      0.00546195705747
  Br  2.71689800160647      5.78999756602391      0.00554490418601
  C   5.55807122043496      5.22510476408376      0.00570918224806
  N   6.67397478444937      4.52850930818886      0.00568600316000
  C   6.65091531591832      3.14303647862062      0.00535592162063
  O   7.68100232402119      2.47307598264506      0.00541005814893
  C   5.32485865897812      2.52313180123959      0.00495538021539
  C   4.87089840522497      1.20044217648436      0.00465725282466
  O   5.66389716753599      0.08135282978986      0.00470278448977
  C   5.19578034036053     -1.16842974487561      0.00439936252640
  O   5.94098690133874     -2.10046784828739      0.00416195159865
  S   3.44386652170986     -1.52606119616212      0.00431314978822
  H   2.10022180822234      2.81321269975916      0.00484251882019
  H   5.65874287779546      6.30903647097434      0.00594954722687
