22
Coordinates from ORCA-job 11187optt
  Br  0.71070199811373      0.13638390289200      0.01023164671406
  C   3.04073262620863      0.04706825814023      0.73996598695036
  C   3.67056153756275      1.24909674902612      0.61361353406645
  N   3.21236466874720      2.57929497418325      0.78629827215802
  C   4.26260842158862      3.37388992810883      0.35463259156054
  C   4.69939183895811      4.65574169669671      0.17299272958294
  O   4.30395221358419      5.96793063421128      0.24895307189620
  C   5.43035767254798      6.63604360383829     -0.13461381126361
  N   6.46459712933175      5.94600535272074     -0.43953666088519
  C   6.04388227326384      4.62263693537251     -0.25834572240970
  C   6.47161295007771      3.31710603558617     -0.34075952115687
  N   5.36108749490331      2.58320615271536      0.03290263014457
  C   5.00172167029494      1.24199528492665      0.16537738589774
  N   5.75720682330837      0.21690050063229     -0.10707222192932
  C   5.15237348488747     -1.01264782782391      0.03585732333233
  N   5.70399075424058     -2.15627178842681     -0.15706283309930
  N   3.79572864856736     -1.02253457057365      0.43415350190050
  H   2.27217620600101      2.76929111118486      0.46133863851094
  H   5.34386452902452      7.71146958839634     -0.14681099893211
  H   7.39704502857808      2.83944735945300     -0.59980959132024
  H   6.66664187994854     -1.99848380272815     -0.43786401525265
  H   3.39240015026117     -1.94657007853218      0.49055806353436
