21
Coordinates from ORCA-job 11180optt
  Br  1.26980480378598      0.20779577008013      0.93941935672034
  C   2.96975755680727      0.12126816067900      0.10659600652470
  C   3.46022755544775      1.22133911935630     -0.53578048257250
  N   3.00270325748417      2.54471834612910     -0.53045425026044
  C   4.09174478596859      3.41772507439858     -0.78342111347729
  C   5.13510188433317      2.56390676021324     -1.16507544291998
  C   6.36633276204369      2.75764788872054     -0.54261057133552
  N   6.83933411608855      1.53901373864435     -0.07092282539929
  C   5.87760334885873      0.65720475718579     -0.38507035085193
  S   5.61623744214231     -0.94074757514700      0.27980255554970
  C   3.78369606164834     -1.05867906215224      0.34879708347150
  N   3.29320523647431     -2.17132056098268      0.73221609762365
  C   4.78466878593067      1.22740458377244     -1.07478287626830
  C   6.26086786949890      4.07726117467639      0.10684133928164
  N   7.03413783797316      4.79137531015025      0.81255201967325
  C   4.73514455125566      4.47689987587336      0.00653196048841
  N   4.20505816649046      5.44554808152819      0.62793043765190
  H   2.16702470960551      2.80952150622423     -0.03410328023282
  H   4.01847875150109     -2.85368359640628      0.94162083492057
  H   7.96011814929579      4.36739788605175      0.85758470754274
  H   4.94975236736586      5.93340276100454      1.13532879386966
