22
Coordinates from ORCA-job 11181optt
  Br  1.05855450947841      0.52910957066926      0.12079154808061
  C   2.94382718778207      0.30957723021657      0.10390615271289
  C   3.80342509832708      1.42767397311780      0.08762628708914
  N   3.54325014100758      2.75673388894778      0.07887388230113
  C   4.76371806601381      3.33216966173528      0.06679477666714
  C   5.15509797471393      4.67656926794746      0.05212017502576
  C   6.52709171500753      4.93549297663669      0.04252761523460
  O   6.75054080916787      6.29220148551533      0.02850482032289
  C   5.51860041446817      6.87261866768591      0.02929341817586
  C   4.51890499668213      5.96795500444232      0.04327367257786
  C   7.50964300902521      3.94552948829005      0.04630478466645
  N   7.17432406143466      2.66286265742454      0.05873389635293
  C   5.85339836769701      2.37690968564002      0.06811078196435
  C   5.19190250394960      1.14603638719874      0.08028489836512
  N   5.63366989434227     -0.16945383867787      0.08655720945780
  C   4.69280020229919     -1.16844958630833      0.10119468506386
  N   3.41661386681396     -0.95409143444589      0.10978728933852
  H   5.51625519817781      7.94991445414378      0.01886147667764
  H   3.46225535281755      6.17436724450786      0.04639811190897
  H   8.56306206945393      4.20363165259931      0.03934848354150
  H   6.61842309465832     -0.37150689990107      0.08119232038891
  H   5.06864146668185     -2.18385153738555      0.10551371408607
