21
Coordinates from ORCA-job 11183optt
  Br  1.44199742559071     -0.02375306643892     -0.73771015052297
  C   3.13373970441363      0.13023521718412      0.07498941564185
  C   3.58082987102927      1.35376333435543      0.44001298083485
  N   3.18946327848665      2.66775234791541      0.22440547554065
  C   4.23856083489066      3.58369688608517      0.61495161343229
  C   5.22350645083165      2.72057257863693      1.04264449144709
  N   4.83182794186131      1.41038538343370      1.02767677458847
  C   5.87631523614350      0.63398550558243      0.50020553087652
  C   6.95026255903139      1.53142715813471      0.22654837733267
  C   6.49011049988318      2.85882852209444      0.48707601056549
  C   6.37382505981649      4.14589862129420     -0.25099820335034
  O   7.19998682606501      4.86233673212877     -0.77532758192212
  N   4.97436831686737      4.45404077503740     -0.25201131861250
  C   5.47931303987967     -0.65487277289510      0.19117180971016
  Br  6.79321266285674     -1.88497626968577     -0.38730663315975
  C   4.06035932278659     -1.02677122357074      0.08296045911368
  N   3.59166145649842     -2.20497343752287     -0.14700159121096
  H   2.22465822112832      2.90495406482212      0.07130267904494
  H   7.86822586046188      1.23227439457264     -0.25265656228319
  H   4.73989125889893      5.42739502354274     -0.37742199661916
  H   4.35288417257855     -2.87719977470682     -0.20351158044767
