24
Coordinates from ORCA-job 11186opt
  Br  1.17910390731168      1.04623382110153     -1.71597209300973
  C   2.83077922432203      0.56302985623743     -0.00842744644049
  C   3.15936584820857     -0.75213035733238     -0.09865365464211
  N   2.28270361153121     -1.84741785717906     -0.33994540402927
  C   3.10067037979463     -3.03253223051771     -0.52074422463604
  C   2.95897590973200     -3.99496939244106      0.66678895333367
  O   3.73361978779475     -3.41674909992731      1.67737629947947
  C   4.95507014978252     -3.41725339742714      0.94363605433810
  C   4.60398854754916     -2.60956109416449     -0.33095336707586
  C   4.51398266764214     -1.12571315473357     -0.10895205715949
  C   5.51050415318862     -0.20884574878127     -0.00891496713896
  C   5.16229641288828      1.18812623191283      0.10212783003555
  N   5.92943690560590      2.20501225044865      0.20091603596275
  O   3.80691274252712      1.47061851691301      0.10787850313744
  C   4.99338474724202     -4.86934830196040      0.48364567072922
  O   5.91108962567533     -5.58799907936582      0.23311584054345
  O   3.68984994364807     -5.20353702530652      0.33307701958454
  H   1.66212361935116     -1.63577511179579     -1.11588104979266
  H   2.90043018318456     -3.54971179387973     -1.45814429444025
  H   1.95925200816610     -4.24177343537899      1.00220280549024
  H   5.79777403091585     -3.07816974930832      1.53392409825546
  H   5.26463462426340     -2.86843411105625     -1.15811902762746
  H   6.55882597454744     -0.47354979184320     -0.04948562831596
  H   6.89422499512705      1.88745005578574      0.20250410341841
