22
Coordinates from ORCA-job 11193optt
  Br  0.99243928600359     -0.04946934182840     -0.03921390560192
  C   2.87681450460599     -0.05886720831764     -0.03900850668844
  C   3.59749853883223     -1.19812441499513     -0.03898897882939
  N   3.20571465375354     -2.51188918160212     -0.03904518860672
  C   4.31840439190955     -3.32423605732609     -0.03900995540705
  C   5.47662481401527     -2.49673418231230     -0.03894869705171
  C   5.05024108552475     -1.14195046166662     -0.03890044862296
  C   5.66911113661446      0.10874628248070     -0.03876811325467
  C   4.91438223252034      1.31583614414430     -0.03877945091194
  O   5.35545953790152      2.46974202254486     -0.03855132229495
  N   3.51672118936890      1.15740565356940     -0.03890230059078
  C   6.76189045122949     -3.12759314150654     -0.03903086570191
  Br  8.33513323085353     -2.04393247818780     -0.03928940136846
  C   6.96056165643614     -4.45353737005488     -0.03901486663855
  S   5.69902816663984     -5.66208951405284     -0.03886735246004
  C   4.18194950369287     -4.71842731403430     -0.03898625038895
  N   3.01744575261862     -5.30437107962816     -0.03901131340054
  H   2.26897439953381     -2.87904005521209     -0.03906200238911
  H   6.73901630876472      0.22649166103319     -0.03864116883551
  H   2.98754507315567      2.01398144732811     -0.03887112624050
  H   7.95520247337137     -4.87431489278521     -0.03911852884347
  H   3.10384161265375     -6.31662651759042     -0.03899025587241
