20
Coordinates from ORCA-job 11192optt
  Br  1.11770886712476     -0.10816878802421     -0.09646637200699
  C   2.98066678696963     -0.21124454814535     -0.07912419169600
  C   3.71773675974222     -1.38267903573358     -0.07641261311216
  N   3.28263538178145     -2.66923193242366     -0.07707291335201
  C   4.41604304086197     -3.39250745878222     -0.07516056019975
  C   5.59808125024547     -2.59500859312380     -0.07365594346739
  C   5.15050857087372     -1.27823604445116     -0.07354841041640
  C   5.74898049003882      0.01871881153510     -0.07248957947970
  C   4.94382604465951      1.09045318920921     -0.07412472181185
  O   3.57979995272482      1.02173675475141     -0.07760191967333
  C   6.89193287890636     -3.20716378908372     -0.07452454860170
  O   7.99849007610985     -2.67140950688953     -0.07489240207411
  N   6.80920337916536     -4.59730558593524     -0.07574014352822
  N   5.73984185802033     -5.39820843740001     -0.07506781826884
  C   4.56702167219622     -4.80623130127003     -0.07466867958052
  C   3.43600107541782     -5.69531011812161     -0.07317275141952
  N   2.54933935392462     -6.42422679214054     -0.07196876450044
  H   6.82177035853144      0.14912601066163     -0.07034787182319
  H   5.27566030891463      2.11728438057217     -0.07313798120829
  H   7.69475189379094     -5.08038721520485     -0.07682181377957
