24
Coordinates from ORCA-job 11202optt
  Br  1.08421284066515     -0.06418941542978     -0.75424216534283
  C   2.87101081140965     -0.18464917554885     -0.15546197765381
  C   3.52752351324958      0.91577006260838      0.27637006097936
  N   3.00583272741687      2.21019423073025      0.46098944877037
  C   4.13712281237476      3.10365039796574      0.52069106957125
  C   4.32180556226415      4.20105603711716     -0.46690539181255
  C   3.95277699497987      4.52676002491043      0.97433262162476
  C   4.92687723312889      5.13215164012775      1.83708482689018
  C   5.75572748304530      5.61635264909014      2.55725830557365
  C   5.28951090647653      2.23869086725161      0.99635788358240
  N   4.84551459564722      0.92921160201933      0.59291816195103
  C   5.66571055167416     -0.22197959016081      0.55217768039956
  N   5.06731753709785     -1.44634607779761      0.45764186560898
  S   3.83516465923362     -1.62368665601145     -0.51081498289586
  O   4.17194150822059     -1.53928652882304     -1.91996688479792
  O   3.06959082888689     -2.78568843283666     -0.12815102946568
  H   2.28480474824117      2.44430449053477     -0.21043554942812
  H   3.55129628235193      4.35215804185645     -1.21135480219748
  H   5.32957715395456      4.44032623489165     -0.77819408237924
  H   2.92656948282144      4.82463447622295      1.14874442367078
  H   6.48766963526839      6.04282105420252      3.19916854726334
  H   5.42172963778314      2.31229173616094      2.08384164507797
  H   6.23535448644475      2.49940087191010      0.51328744545947
  H   6.53635800736342     -0.14394854099201      1.19566287955037
