22
Coordinates from ORCA-job 11204optt
  Br  1.62684919019419     -1.77389797699015      1.72041334860972
  C   3.24461238996924     -1.02544990205017      0.91848381595018
  C   3.29022046268987     -0.77923341357153     -0.45023941012405
  N   2.09775205016923     -0.44202620282758     -1.16518168187093
  C   2.05313979500681     -1.16495738858767     -2.40599115320990
  C   1.21039002169348     -0.87532032529152     -3.62258754364949
  C   2.65272042261275     -0.49169121375782     -3.58227414554160
  N   3.78402882842962     -1.15286195688967     -4.18950197349659
  C   4.78991021726470     -1.02967402103822     -3.43775903277925
  O   4.76211267902249     -0.25642716051650     -2.30272720529496
  C   4.54481300163104     -0.88888872520998     -1.07760150162350
  N   5.64718893533105     -1.43980278714355     -0.55485277444069
  S   5.41471279763452     -2.30962257142852      0.73924091827612
  O   4.68685931018918     -3.51894259614144      0.48369517712545
  O   6.59203521927381     -2.37668135372087      1.54204230580755
  O   4.37477509247062     -1.34271429179208      1.59966597529435
  H   1.29818740350535     -0.63424227035046     -0.57344498273194
  H   2.32272527389779     -2.21730975439554     -2.33214876599270
  H   0.50712777390380     -0.05372780847106     -3.60562394123061
  H   0.89317097522422     -1.74729251077204     -4.17861552195508
  H   2.80494673405947      0.56568159605023     -3.40964579269146
  H   5.74772142582671     -1.48991736510384     -3.66134611443060
