23
Coordinates from ORCA-job 11207optt
  Br  8.84038552885538      1.05286865657610      0.03055927205383
  C   7.08921665059810      0.40201720151972     -0.00396820667327
  C   6.72660094744128     -0.89979090922234     -0.00006286625555
  N   7.44271156347749     -2.05690136887110      0.05630870531206
  C   6.56605463276444     -3.16436223394813      0.02361737039126
  C   6.86315257435472     -4.49003062387381      0.05675563871487
  C   5.76971673649305     -5.40070546823024      0.00038574011458
  C   5.64623535552210     -6.78589886336541      0.00188088542337
  N   4.33774110891740     -7.17166555961308     -0.07818774441284
  C   3.59924555363606     -6.06487005573569     -0.13045974158368
  C   4.41038285700909     -4.89815090960211     -0.08688384317387
  C   4.14265896882928     -3.53065579007085     -0.11420613785422
  C   5.21935219499275     -2.64610825691005     -0.05883058835274
  C   5.33445733473185     -1.23636907906237     -0.06991938045075
  N   4.39559752543050     -0.23473159071074     -0.14251083017900
  C   4.81306599371309      0.96340271752662     -0.14068324779196
  O   6.11581758768381      1.39146388493982     -0.07635509786968
  H   8.44343343890907     -2.10823897901211      0.10847778690758
  H   7.88891995965040     -4.83766582852800      0.11935848502133
  H   6.43656104802177     -7.52192120359986      0.05763625900724
  H   2.51981946498868     -6.10649838269195     -0.19823411301485
  H   3.13010314114654     -3.14852424664403     -0.17893020293053
  H   4.14576983283309      1.81333688912965     -0.19074814240320
