28
Coordinates from ORCA-job 11219optt
  Br  9.71544836783883     -6.20271023580883      5.33253569459292
  C   7.13570735620960     -4.72973157409096      3.44411077394251
  C   5.87791130120694     -4.27535530146324      3.08190357969432
  N   4.97158640487058     -4.95198792723426      2.24783598311916
  C   4.57645996710544     -4.28397605382024      1.01821704538871
  C   3.70065284540224     -5.19934982682106      0.12614144067713
  C   2.45401277317471     -4.33564970287491      0.45678387443323
  C   3.36680127275248     -3.37687460009959      1.18879829575693
  C   3.21676610948073     -2.21619184482520      1.80051484716314
  C   4.36096270069061     -1.56043179802940      2.52449387045703
  O   4.63662760461728     -2.19329489418321      3.77354648693402
  C   5.70891417905798     -3.04565903733267      3.78284618159660
  C   6.83582540577001     -2.83620884277912      4.54899935959160
  N   7.68706514199281     -3.86760325061250      4.33931433474750
  S   8.07367315785468     -6.08888925223200      2.81086656708043
  O   7.05752380480592     -7.02215553613933      2.30006629238580
  O   9.02106039944884     -5.55682035445904      1.83970245399407
  H   5.35064663852583     -5.87282809120499      2.04423667361376
  H   5.43018582265034     -3.81868574762564      0.50834458705460
  H   3.65945607994250     -6.23183530762688      0.46817698649900
  H   3.98644555143084     -5.17802384287281     -0.92333210970275
  H   1.74156524287426     -4.83247003121979      1.11637879399757
  H   1.91443394029326     -3.92115468688051     -0.39520588397809
  H   4.12395825063968     -0.51955268281291      2.75152648436061
  H   5.26617199003200     -1.57961108327085      1.90998045913178
  H   7.04677111375448     -2.04438414935178      5.24679702161954
  H   8.52894696582650     -4.11223335648857      4.85723836306774
  H   2.23841961175028     -1.74733098783948      1.84818154278102
