24
Coordinates from ORCA-job 11218optt
  Br  1.08363748449102      0.06859272718032      0.03028257586646
  C   2.97062561999594      0.08378388231301     -0.07833376388180
  C   3.67877620110310      1.29829490662216     -0.13579556122751
  N   2.97926617951490      2.50735467758366     -0.22418889241611
  C   3.68974840612595      3.67614330862125     -0.12899063726629
  C   5.06111021031021      3.68230594034234     -0.08426435189713
  C   5.94975550155717      2.50614735468388     -0.11053923480031
  C   5.08168584455719      1.26450846931475     -0.11711369261079
  N   5.78079738752865      0.13337235501519     -0.09173991084881
  N   5.03529406075934     -1.01866770957271     -0.14654655726652
  C   3.65296734945477     -1.16183028582688     -0.04505587690468
  N   3.07488351959392     -2.32051196798203      0.04093827895425
  O   5.52078384033205      4.95099737359154     -0.03767589666392
  C   4.42886644814281      5.77116006497743     -0.04321105925461
  C   4.67678832454167      7.18590927676308      0.00403231696553
  O   3.82015333855176      8.04812339027250      0.00632193077013
  C   3.27811769029633      5.02531461727711     -0.10287963474819
  H   2.00169954884299      2.48856652928458      0.01484819682757
  H   6.61711998087331      2.48457683036427      0.76129208810075
  H   6.60626841916118      2.51474687446637     -0.99219076010037
  H   5.58259357337236     -1.84993437183324     -0.00686566184620
  H   3.77491981047140     -3.05959830732412      0.03681574112093
  H   5.75132035516030      7.44832881022102      0.03786666257838
  H   2.27882090526149      5.42731525364443     -0.12800629945077
