31
Coordinates from ORCA-job 11212optt
  Br  0.75925662906935      0.12682072613688     -0.68365337715426
  C   3.12596867801380      0.00577560167929      0.27170684789427
  C   3.75320397856568     -1.20817485814906      0.29486388190426
  N   2.99895110757468     -2.40937137429962      0.43471089016171
  C   3.64082151856648     -3.61058722039091     -0.06148447670505
  C   5.02458312540228     -3.70229225659910      0.57906997662761
  C   5.90604499318446     -2.52602588636671      0.16937813536359
  C   5.16722622546294     -1.20647841761789      0.22634001419536
  C   5.86829982297578     -0.02781596789566      0.16461970227739
  C   5.21862633294548      1.25059169403597      0.14228163495087
  N   5.72930713823788      2.44362840663590      0.08480278990827
  N   3.83163931489489      1.14178731251357      0.18657046005558
  C   3.74245934041761     -3.64106800306867     -1.59635677373772
  O   2.46218107667468     -3.77883184398037     -2.18442663764238
  C   1.79290326124445     -4.90488671019663     -1.71768145473045
  O   1.57846844766909     -4.87449669986042     -0.33766204484064
  C   2.81007595586893     -4.81967674561718      0.35767216000190
  H   2.06597864590295     -2.26879345487939      0.05134422387764
  H   5.50256748078432     -4.64733938870598      0.30707655285075
  H   4.87954696395381     -3.69929236952259      1.66298515369398
  H   6.26537449161731     -2.67535714810267     -0.85433707933048
  H   6.79643280706062     -2.47870672218487      0.79995993959773
  H   6.95073610064244     -0.04325324678376      0.11036838471358
  H   6.74161567629742      2.37389361075756      0.05533317844551
  H   3.32722029800927      2.01778364876129      0.13484316301294
  H   4.38672352027721     -4.47689323684324     -1.91553197012400
  H   4.15348440346428     -2.70464029013385     -1.97293220770174
  H   2.37451474450206     -5.81008088262068     -1.97376996262851
  H   0.81775272446155     -4.92470938831686     -2.19793489095169
  H   3.37890607001210     -5.74115903475103      0.15809161398098
  H   2.57712912624601     -4.75634985363323      1.41975217203301
