28
Coordinates from ORCA-job 11222optt
  Br  1.28405808384700      1.79114503138137      0.32003429049603
  C   3.15658689174984      0.98918218042232     -1.03770259066633
  C   3.49347143253384     -0.34589283813329     -1.00074612683567
  N   2.73118508175592     -1.51083369624714     -0.63539788071963
  C   3.70375360299582     -2.43727664799750      0.00639447439475
  C   3.80951498242024     -2.25620169669616      1.54060784001897
  C   5.08542542075410     -1.43983821660961      1.82650521758932
  C   6.07114261878165     -1.76605984646253      0.68438800825695
  C   6.89780361046142     -0.50686457583370      0.22047367978122
  C   8.08939455486593     -0.89947490121831     -0.53798319015339
  C   9.04888934596179     -1.24939588119369     -1.16866734176996
  C   5.84890148350940      0.24695528982509     -0.59059579636165
  C   4.84713756953787     -0.62470809418067     -0.89062579561301
  C   5.11334243324186     -2.03868737184649     -0.49138736931203
  C   5.54219218480995      1.64166510832668     -0.61933127289969
  O   6.26687831972560      2.59453807929122     -0.34316664839068
  N   4.18735909843134      1.87094924262934     -0.98475670906174
  H   2.26744462354349     -1.94723715005717     -1.42270234217692
  H   3.41883342360059     -3.46002111685944     -0.23964576234171
  H   3.89666677265783     -3.24353256597043      2.00252263677833
  H   2.91158291459634     -1.77711744570411      1.92944356239013
  H   5.50775435280199     -1.66076949650340      2.80745722393700
  H   4.84783967746648     -0.37419194318454      1.80378692606042
  H   6.72106088449576     -2.60657646159789      0.93471860182681
  H   7.21817808408928      0.09258804612942      1.07790390675767
  H   9.90003642123929     -1.53804371285515     -1.73543546147600
  H   5.53103040575618     -2.65425751301039     -1.29082451854035
  H   3.93953572436898      2.85195819415620     -0.94426756196883
