26
Coordinates from ORCA-job 11230optt
  Br  5.21069518139772      0.90564486495319     -3.27047752814551
  C   4.40240200523863      0.49065873592148     -1.61147628609775
  C   3.31730301208397      1.18233015427871     -1.15715328551465
  N   2.62515187656469      2.18201539026168     -1.73972814686498
  C   1.32185822231850      2.47125988899407     -1.24207979926709
  C   0.54430742597641      1.43929719884741     -0.76279332801517
  C   -0.35007006541897      1.96928483189801      0.18247529058258
  C   -0.20218092700513      3.39967941049041      0.15222803097854
  C   0.85432458645444      3.70530216847452     -0.68528380859247
  C   -0.92851140365987      1.19807671902659      1.21169810129556
  C   -0.55088927713735     -0.05177965076934      1.67304098121911
  C   0.52292412574776     -0.97998125412644      1.51663656835231
  C   1.82910516176961     -1.16309592340049      1.01202706107009
  C   2.86893314759788     -0.52662651997363      0.34722281429069
  O   2.89038847793131      0.84269188619516      0.08649299791337
  N   3.98493406766539     -1.22477623535143     -0.00019552394033
  C   4.76860271233726     -0.69423746428830     -0.89342246694555
  H   2.95144387209687      2.48590176084609     -2.64398103820884
  H   0.70693329427281      0.38539924220997     -0.93181110178129
  H   -0.76782746537719      4.09764490064338      0.75393714970828
  H   1.27968400760067      4.68254836484882     -0.86543769869083
  H   -1.74032228222991      1.65965328882170      1.77237966272750
  H   -1.25989863099080     -0.44349209852293      2.39957145975845
  H   0.25484115316004     -1.88953589775200      2.04812765960986
  H   2.18579415014273     -2.16521550282314      1.22872620191153
  H   5.66807357146250     -1.23164825970351     -1.17472396735340
