31
Coordinates from ORCA-job 11231optt
  Br  1.03668430153971      0.14911201777596      0.14406640655456
  C   2.92255227473522      0.09489791960521      0.00335552776886
  C   3.54936006980546     -1.09335156261304      0.14803975124181
  N   3.00321033899665     -2.32566566655769      0.48320865499018
  C   3.99606400948082     -3.36084961216795      0.22851123820662
  C   3.87940654886784     -4.58931625147507      1.12308761274302
  C   4.82967085572457     -5.59317802645508      0.46437157340403
  C   4.76591646894470     -5.27874902777404     -1.05615542643744
  C   3.95271741316935     -3.97703431251371     -1.18010386645689
  C   5.29645533416823     -2.57429221164639      0.44356629677162
  N   4.90195772434034     -1.24199855133542      0.01230070942198
  C   5.73330871595715     -0.12231114476959     -0.14188812007588
  C   7.13765171132480     -0.28676590537607     -0.19420616969317
  O   7.78349616134842     -1.37066687574672     -0.15243123857223
  C   5.09445202865199      1.11535583949757     -0.29235908634521
  C   3.67975741172930      1.31927260995327     -0.25785430788923
  N   3.04139608001860      2.44472382615851     -0.42270870728142
  H   2.05562520184718     -2.47737878030792      0.16654941438493
  H   2.84729689306348     -4.95144782512078      1.08730704291148
  H   4.12204404372260     -4.36586285294447      2.16194290084355
  H   4.56901833975500     -6.62739849294193      0.68847836974217
  H   5.84330088685489     -5.42856182328337      0.83383862784772
  H   4.29904168964864     -6.09085251975480     -1.61376734593438
  H   5.76968775680305     -5.15098644011837     -1.46052903872755
  H   2.91103592867921     -4.19639356378121     -1.43120664876525
  H   4.34068690574935     -3.28754158837331     -1.93017195986580
  H   6.14162310512559     -2.93427155002711     -0.13448580255994
  H   5.58268995100453     -2.57101438463151      1.50324100010576
  H   7.67603163336203      0.67124825418834     -0.29511621831228
  H   5.72479574868518      1.98030022529049     -0.46208674981125
  H   3.72306446689600      3.18297827724621     -0.58979444021036
