30
Coordinates from ORCA-job 11232optt
  Br  2.28999767724904     -1.73907427392300     -0.33389407665873
  C   3.07710209042602     -0.16677599948139      0.42471845979316
  C   2.83714686645074      1.09311217034438     -0.04930001065259
  N   1.79496073490551      1.27687240449137     -1.01346439323243
  C   0.42719458828063      1.73552264969884     -0.67886480936254
  C   -0.20647006017794      1.07272986373735      0.57967541863993
  C   -0.22070201664499      2.16689901979165      1.69236050321678
  C   0.88089583067547      3.07638811823012      1.15111559833007
  C   0.42500142113575      3.21322768733339     -0.30010953585428
  C   1.54096447515053      4.27809453458612      1.79391866222837
  O   2.95182740145448      4.22583559610147      1.59488506431300
  C   3.49805920961578      3.59459930588263      0.40652217096734
  C   3.72177553428523      2.09855972624913      0.46325841019193
  N   4.85365189105633      1.75499198967422      1.14134501368585
  C   5.07852307970575      0.51989703086312      1.54488979423772
  O   6.04012508147699      0.03825608778383      2.09707076839713
  O   3.98901513535231     -0.44879886323812      1.35463220190784
  H   2.13844963224863      1.82899564303985     -1.78881346073957
  H   -0.17284475172442      1.52244908058692     -1.56502476111663
  H   0.39247410509712      0.21753123892941      0.89087781095062
  H   -1.20739484318161      0.70622981431754      0.35147219789412
  H   0.01453802302419      1.75269230181724      2.67305597492881
  H   -1.19255402423906      2.66644814265932      1.75014710185467
  H   1.70471612905581      2.37764943867712      1.15841162615503
  H   1.06205300882464      3.81411799102063     -0.94579377423497
  H   -0.58409932870045      3.64418439957718     -0.33304835880676
  H   1.39861633499536      4.28895151306157      2.87746009517520
  H   1.14451062848452      5.22226400867526      1.39352329565976
  H   4.48816275419884      4.04229641223757      0.33320312680626
  H   2.92330339151872      3.89485296727523     -0.47023011467512
