28
Coordinates from ORCA-job 11246opt
  Br  0.68122744915535     -0.09924957040117     -0.46298948054599
  C   2.61964949307108      0.06923635694526     -0.67743906882583
  C   3.20042857782939      1.24548801917012     -0.13365690041964
  N   2.51004836516408      2.47889979366899     -0.00076993991201
  C   3.45892608052185      3.49273641213940      0.39800440250290
  C   2.91555949423616      4.55858350853233      1.31373177717988
  C   2.29800614601272      3.98032275503579      2.59419380216441
  C   3.28939153026872      3.46321444730785      3.53491386358880
  C   4.10161583982795      3.03872372220166      4.30809239666386
  C   4.62865918082711      3.78642166472219     -0.50714077203908
  C   4.77111533016207      2.80126389217268      0.63404816859704
  C   4.52860975625127      1.37443226129999      0.28803911156545
  C   5.42666322796539      0.33781952902705      0.26372971370128
  N   4.98216072549244     -0.88644182852370     -0.29292060467883
  S   3.40101852704622     -1.36763018603916     -0.06960460838648
  O   3.23038079166616     -2.52129136660891     -0.91920705142150
  O   3.14512159090743     -1.59178420049296      1.33579685001827
  H   1.92089747510622      2.71517833865279     -0.79110650884710
  H   2.13964330546715      5.12377079193866      0.78679176844587
  H   3.71228079896164      5.26148089168650      1.56820119335370
  H   1.62468655037811      3.16700206719194      2.31226442164161
  H   1.70467390842573      4.74494829650103      3.10133191574694
  H   4.81776334218279      2.62723007705664      4.97687730828175
  H   5.09889945342226      4.75602684392921     -0.39571899451260
  H   4.61213335551020      3.37901646126128     -1.50963167103159
  H   5.38789168361597      3.06808408533153      1.48166407529594
  H   6.45977908095998      0.40304293020196      0.56521927583880
  H   5.59476893956442     -1.68652599390904     -0.22871444396589
