31
Coordinates from ORCA-job 11243optt
  Br  0.97013140795075      0.44995254138699     -0.13927198050044
  C   2.88623970671000      0.29576491112942     -0.29435545248658
  C   3.65300830269351      1.32638762566197      0.15499885870150
  N   3.29103115431034      2.51687760970414      0.81017790255126
  C   4.39964537605956      3.46934582420601      0.64370826294983
  C   4.27119319323882      4.22938353352139     -0.68855223011454
  C   5.31011738054809      5.33591385435698     -0.86702099765035
  C   5.30635398597247      6.29539253531925      0.32055456373781
  C   5.49237882894403      5.53389785599161      1.63073990943152
  C   4.41706246687689      4.46360843609669      1.80092032745100
  C   5.64806060742990      2.51845339516534      0.56233080471529
  C   6.29474684606120      2.31043684852877      1.87740098021103
  N   6.82684901557315      2.11511221262375      2.87789077652454
  C   5.05131602081303      1.27237263705955     -0.00667691949308
  C   5.59422569341502      0.09636766034104     -0.59860952592097
  C   4.71091797456314     -0.88028332685122     -1.00069033704380
  N   3.36038735612126     -0.83779241991669     -0.87947112065194
  H   2.38333829896390      2.87860789993626      0.54248551757969
  H   3.27216884509023      4.68033701299500     -0.70905391175342
  H   4.31689567350597      3.50425255527203     -1.50495911209371
  H   5.11584688113257      5.87699389152675     -1.79660213255012
  H   6.30773679820488      4.89897028848862     -0.96829840593792
  H   4.34704428471099      6.82524741860561      0.35012645778163
  H   6.08499327002704      7.05301572045485      0.20163915894668
  H   5.46836395051112      6.22141454235676      2.47942458767233
  H   6.47951823026062      5.05928110801768      1.64365033853330
  H   3.43177107279752      4.94308808990155      1.83940213658284
  H   4.54376068037678      3.92094127758036      2.73838036863985
  H   6.42596713123636      2.96170560598541     -0.07339825023339
  H   6.65920288049888     -0.04514350425567     -0.73619473861959
  H   5.09972668540178     -1.78490364119030     -1.46067583696032
