30
Coordinates from ORCA-job 11240optt
  Br  1.19427048501681      0.58605243582458      1.32294756477227
  C   2.94626172981418      0.43649136908023      0.57485991367974
  C   3.24188228258823     -0.73056909097556     -0.17691020036690
  N   2.20172468860722     -1.65740413057834     -0.44900446647541
  C   1.91772983701729     -2.80273633976935      0.41621631357852
  C   2.78041035684512     -2.80426748102606      1.67665343737787
  C   4.26839118732689     -3.12027792231329      1.41530836108370
  C   4.54496802990193     -3.59651586553394     -0.01743760351516
  C   4.84321581367618     -2.45457912085088     -1.04184973576747
  C   4.56340913469608     -1.05163668915641     -0.56180403588779
  C   5.62001572152783     -0.19552303641999     -0.40684617933831
  S   5.43043321151317      1.46774394474150      0.08414059422415
  C   3.81639359216869      1.50013568415016      0.89726229186459
  N   3.54199544577282      2.52201715089131      1.64465369913537
  N   3.45485212570628     -4.48297957435636     -0.42801444250225
  C   2.14270259824946     -4.07578549877470     -0.37439220976708
  N   1.15535730945315     -4.66138259493726     -0.93955820951447
  H   2.03092646401998     -1.84604683955640     -1.42417616617275
  H   0.86367641211813     -2.79217978447818      0.70651173414471
  H   2.35799728676001     -3.55672134549545      2.34563820280204
  H   2.67210031246486     -1.83727811552910      2.16731452971421
  H   4.58596825345462     -3.91345277037820      2.09497850067022
  H   4.88840674877936     -2.24681714770886      1.61683475593079
  H   5.43099638094062     -4.23361495198436      0.01208561900274
  H   4.26915703767982     -2.66952257196200     -1.94858326079734
  H   5.89773312157999     -2.50889515524940     -1.32106742627427
  H   6.63764892228258     -0.49397089774637     -0.61987316689174
  H   4.34882093712607      3.13653051121120      1.71522222225344
  H   3.67178859990322     -5.14319466215145     -1.15964130989948
  H   1.47276597300922     -5.47261950896699     -1.47346932706392
