27
Coordinates from ORCA-job 11241opt
  Br  3.14937880348947      2.44488420144828     -3.90880815740859
  C   3.39758190502381      0.56187658932702     -2.19322008428628
  C   3.29122016264584      0.96080323428187     -0.89109422992232
  N   2.60638968972773      2.18168948875566     -0.55262881933837
  C   1.23944677459469      1.99489812388698     -0.32290507367343
  C   0.65978223407259      1.53573266558359      0.83387014111176
  C   1.36590660813769      1.28700447586250      2.13454981487318
  C   2.40352908498927      0.15667349627094      2.18070522602302
  C   3.76837833147942      0.48219378645456      1.54648271917295
  C   3.87473530485179      0.12563061095882      0.08642504427507
  N   4.50786538635904     -0.98957694145299     -0.19660979432550
  C   4.64540799881956     -1.38857247712930     -1.50689153668688
  N   5.24145335317948     -2.44825547362110     -1.91778930894604
  N   4.07224207913570     -0.54889588705164     -2.47691464347578
  C   -0.74020943026341      1.43761882804807      0.64349972568574
  N   -1.22466243613734      1.79146781870471     -0.52264028786166
  S   0.01882689775884      2.22793429594280     -1.50823964125986
  H   2.75617520355860      2.83051669835366     -1.32327564609987
  H   0.59866645324983      1.08005951897694      2.88582361446929
  H   1.86259536204658      2.21234322050484      2.44548741084333
  H   2.57887124340706     -0.07376827029623      3.23469853767480
  H   1.99380687968258     -0.74964304764819      1.72760626303104
  H   4.54531397317224     -0.08558768736343      2.05641956820933
  H   3.97229024449922      1.54877198149033      1.66816927791593
  H   5.59775975516610     -2.94074751148745     -1.10434395507875
  H   4.18312236927187     -0.84589819406865     -3.43690045541041
  H   -1.42987423191837      1.10984645526739      1.41552429048830
