30
Coordinates from ORCA-job 11242optt
  Br  1.42492757175882      0.41695442792389     -2.38930377193886
  C   2.61816701749324      0.48708569934614     -0.80219559310363
  C   3.08818872168286     -0.73675001790877     -0.35294955623505
  N   2.30400504537988     -1.93970570993231     -0.44956752671407
  C   2.33630627147088     -2.93691732394611      0.66901157568185
  C   3.04774104706947     -4.30940204949721      0.30982427836573
  C   4.45035792617146     -4.57050159470371      0.99839952019197
  C   5.44130112690490     -3.33257788623616      1.09885097074367
  C   4.49090979416837     -2.20588702093614      0.74121852324168
  C   3.25917729863018     -2.34238067117503      1.69067007892076
  C   4.39136720189092     -0.81084686374778      0.19680264414617
  C   5.28086681979233      0.25684018577302      0.13120829649695
  C   4.89658866384456      1.50013168819423     -0.40694934299529
  O   5.60546692148295      2.49656647126829     -0.56728866862221
  N   3.47333869667094      1.60199139635245     -0.73891098854354
  C   2.94464763085435      2.87426051091517     -0.77504620142508
  O   1.76406195703571      3.13452569701738     -0.86407147326958
  H   1.37148676532091     -1.73264630699139     -0.77320226302403
  H   1.31032317838320     -3.11762321968419      1.00119167950408
  H   3.14309499777533     -4.36631810614447     -0.77576481072870
  H   2.39737706555739     -5.13652699666602      0.60772104924883
  H   4.93395763583688     -5.38789991352643      0.45935418468908
  H   4.26274964806684     -4.95035136005443      2.00392622079494
  H   6.25293156467176     -3.42874827424407      0.37561179742856
  H   5.87797345727822     -3.27883579687166      2.09932789327337
  H   4.18280863008012     -2.65978833468775     -0.19623241058522
  H   2.92805222632517     -1.37614114406435      2.06472500190923
  H   3.44089320338995     -3.00634638255427      2.53598978857126
  H   6.30186081140108      0.16727097470142      0.47302175862409
  H   3.73107110361127      3.63156792208031     -0.71237265464698
