27
Coordinates from ORCA-job 11254optt
  Br  1.06975168148986      0.22791200196298     -0.67197856033620
  C   2.95578466406283      0.17891652101588     -0.43863891776046
  C   3.61732297741382      1.33648531985913     -0.00829637267321
  N   2.92200522944013      2.42050730475927      0.36154152540959
  C   3.32006198545758      3.30519491184902      1.29034666815397
  C   4.73191603842013      3.27321915309024      1.76409003470294
  C   5.22112175745049      3.94091588552471      0.45938497341613
  C   6.51791904602921      3.38753399746077     -0.07756990739711
  C   6.00425039561889      2.06753001679670     -0.73938198082485
  N   5.07394927377539      1.18137589761871      0.02279908630441
  C   5.66154657217784     -0.07990322833906      0.31838527959136
  N   6.87025431256778     -0.19145832248273      0.76788782981490
  C   4.87511247042249     -1.22786460277495     -0.02141428546071
  C   3.58554708033007     -1.06965198009572     -0.44664502379972
  C   4.39469545466071      5.20442867634253      0.54846385311798
  O   4.59815465516095      6.35249126965578      0.28372943191029
  O   3.17008015067683      4.72939347860591      0.95120049215983
  H   5.13076728069324      2.28560021416338      1.95204515868997
  H   4.91014956887224      3.92288579819245      2.62258433649607
  H   4.55863185255135      3.54038236191871     -0.30951331981302
  H   7.26019102302162      3.20603489157748      0.70173717805784
  H   6.97750014781408      3.99382117146809     -0.86139041567759
  H   6.83848215497098      1.43499431956671     -1.03852736046604
  H   5.47038551851221      2.37299595135115     -1.64442723129725
  H   7.25393815736166      0.72329611851232      0.99518187265923
  H   5.34039167414819     -2.19730700910093      0.07366590610080
  H   2.99808887689936     -1.93673011849855     -0.72326025107917
