29
Coordinates from ORCA-job 11251optt
  Br  1.21405581448989     -0.11485167673673     -1.05456196245612
  C   3.01216049328335     -0.04598933285628     -0.46259536402866
  C   3.59862835812843      1.22726004990682     -0.21032545277664
  N   2.81152876841807      2.31127973053374     -0.26486397230768
  C   2.97087837607554      3.37058303093887      0.51436398476493
  C   2.57471003928132      4.76645339835812      0.02561025366246
  C   3.41128269313785      5.85872130274412      0.74016769405533
  C   4.95564522964660      5.60427789227746      0.73137676265701
  C   5.11611639781766      4.10996462046857      0.49287926497146
  C   6.35582523328998      3.25370198149598      0.49672149159235
  O   6.02939102123449      2.10858089760859     -0.28678454478442
  C   5.06820619230905      1.14895628409679      0.06478638714933
  C   5.61925822262020     -0.05166144768033      0.32269464493641
  N   4.89247130730754     -1.20956096119281      0.34020707747560
  C   3.59058083376440     -1.30629645121914     -0.16693615339043
  O   3.09214725907286     -2.43325507230654     -0.26886791230497
  N   4.14865441409917      3.39436330787556      1.33061889240356
  H   1.51273253097012      4.97265548262546      0.18266940644207
  H   2.73476983704860      4.82753758829843     -1.05882471904377
  H   3.07455215966650      5.91232788239156      1.77835948272026
  H   3.19206103584363      6.83507486277754      0.30347453966616
  H   5.39076103934451      5.92616185466150      1.68282674205093
  H   5.44316746399374      6.17662926950834     -0.06253308973574
  H   4.78328935028497      3.97327604468374     -0.53972926480333
  H   6.65046969763443      2.96464079929225      1.51116355898341
  H   7.20509533800112      3.70593787877215     -0.02151284516096
  H   6.69063546737643     -0.14116400741496      0.44142395686892
  H   5.33452417112869     -2.09547031889524      0.51699003243291
  H   4.00440125473078      3.89186510898639      2.20120110795962
