24
Coordinates from ORCA-job 11250optt
  Br  1.17706999870552      0.87291217172274      0.37295399710207
  C   3.00059309488756      0.51223608207576      0.05262014557292
  C   3.90397386624386      1.51175623678929      0.14943066818839
  N   3.71388583617539      2.88114172493365      0.40433126088214
  C   4.93583815323044      3.48013559518563      0.08319339683997
  C   5.87491488863842      2.51254541192508     -0.13666220276074
  C   7.15549569567539      3.12467239125161     -0.11127337112171
  C   6.92528918857285      4.45522019129857      0.16153218815117
  C   7.89489211542281      5.59767463543119      0.22865210513077
  C   7.35563415082478      6.83677902287657     -0.33515246816052
  C   6.87208253402239      7.84065970413016     -0.77735800432510
  N   5.57227697225100      4.66464211649706      0.35818323480538
  N   5.24456198122390      1.28839288504288     -0.06302225375184
  N   5.81122140641116      0.06903977693651     -0.38982545543523
  C   4.88016954109314     -0.92928878162441     -0.43816349717390
  C   3.48078167970568     -0.85752042721409     -0.25253041399083
  O   2.68461649629605     -1.82197719261848     -0.33512433425943
  H   2.81713062812295      3.25826913307864      0.13566193469816
  H   8.11534126157791      2.66254060945085     -0.26742761361530
  H   8.80037818843808      5.32022352673304     -0.31347268477264
  H   8.19467229523555      5.80074472645969      1.26266751359644
  H   6.45241796601142      8.72925723876817     -1.18310723704044
  H   5.15960053558864      5.58181314570553      0.32071029058110
  H   5.28816152564498     -1.90286992483572     -0.67981719914081
