29
Coordinates from ORCA-job 11259optt
  Br  1.07801522066697     -0.32742768402164     -1.05486994367027
  C   2.88632344112041     -0.13460907142834     -0.51385080184722
  C   3.68988116677421     -1.21629575031665     -0.31672662268928
  N   3.32385399955653     -2.56823741421678     -0.55228560845435
  C   4.45988497134034     -3.40120983949565     -0.18406972956503
  C   5.67362356814899     -2.45814686149818      0.10655464111750
  C   6.80726977984748     -2.48373091569960     -0.93692465610281
  C   7.70056678112759     -3.72574723630263     -0.88350143650289
  C   7.05624653324893     -4.97618938398323     -1.45288317917842
  O   5.80717315961083     -5.27250553717086     -0.82465440193687
  C   4.77645347892820     -4.44154660112306     -1.21300180435337
  N   4.16503484349191     -4.56273812527569     -2.30595167156534
  C   5.00034527174844     -1.11513042125687      0.17445473337639
  C   5.60110851377734      0.07363577822573      0.61489776862355
  C   5.00411301745037      1.35103562760024      0.56262612518962
  N   5.44324232846650      2.50120852528210      0.97959335803223
  S   3.39824870687558      1.52356195993527     -0.24987844502303
  H   2.99734493037720     -2.74975927759681     -1.49473193724937
  H   4.23619909789268     -3.95314528136836      0.73669059256092
  H   6.11897265772090     -2.73792359800652      1.06966832949323
  H   7.41764707160805     -1.59739041962224     -0.75304458273555
  H   6.37912987791610     -2.35736965181018     -1.93798456825335
  H   7.98716120422748     -3.91693311012860      0.15522258904392
  H   8.62432324836168     -3.55045818796493     -1.44392594825770
  H   7.68194831147247     -5.85326066568496     -1.28696541740727
  H   6.89682328439643     -4.86636954185162     -2.53170677273651
  H   4.54621943653797     -5.34213475138885     -2.84225669046713
  H   6.59631102104307      0.03670826878498      1.05170816957455
  H   6.36653507626526      2.36510916738397      1.39079791098387
