25
Coordinates from ORCA-job 11268optt
  Br  1.46290223604664     -1.10280326146016      0.58210877963904
  C   3.26690764687719     -0.72369276020340      0.21425056456679
  C   3.84926005533612      0.47936048131763      0.37694411236795
  N   3.24460283277022      1.70687518721294      0.77471149059301
  C   4.16833773388256      2.56353222734718      0.59692016305021
  C   5.47465371388912      2.10422732969316      0.01361394050140
  C   6.45766002239292      2.93241452745814      0.85522732377400
  C   5.69935778070504      4.26820971285085      1.02013335366710
  N   4.28845221207518      3.87092261675311      1.04268035202084
  C   3.26752679587457      4.61010699310639      1.57452925604055
  N   3.31559820664517      5.80080131346361      2.02090255551006
  C   5.24160301806188      0.63162094494213      0.07726635382872
  C   5.88733862504646     -0.45241155037220     -0.53239522276345
  Br  7.71543040860395     -0.27677380913721     -1.02931697656101
  C   5.29357626206755     -1.73962532935978     -0.62707190625530
  N   5.74543844214595     -2.86282131562460     -1.04805707116887
  O   3.96748873403412     -1.83061822316164     -0.16029485167777
  H   5.54497219784978      2.46002997084235     -1.02979779070339
  H   7.43296321187464      3.06498437840468      0.39137426758486
  H   6.58942050170338      2.45613484912426      1.82848807921838
  H   5.89235620173879      4.95020681653977      0.18565012545676
  H   5.95284775899196      4.78363827170214      1.94848693203898
  H   2.32924092361831      4.05872884050562      1.58692690177396
  H   4.25272590348055      6.19343090340906      1.93697798530313
  H   6.70933857428787     -2.74047911535406     -1.34125871780597
