29
Coordinates from ORCA-job 11277optt
  Br  2.85273404042722      1.51740994443586      1.07541420796227
  C   3.54825962249850      0.36206508055980     -0.38130603350530
  C   4.32121042904680     -0.75708087922683     -0.03075920460308
  N   4.06674131293028     -1.49869352316189      1.13357532908325
  C   4.57680634341316     -2.65886827591615      1.20542489546292
  C   5.27166797952274     -3.30087045230908      0.02752094582340
  C   6.23877020506529     -2.25665193638814     -0.52153126580347
  C   7.41894959551795     -1.94577185849213      0.42774577520978
  N   7.13957577341428     -1.39023480619404      1.74423177262582
  C   6.95020147811073     -2.23637058997074      2.91077493451268
  C   5.50932863431332     -2.48445366781345      3.38942306355208
  N   4.70112455591346     -3.28059859426755      2.46424324793980
  C   5.44029736918581     -1.00830037261800     -0.82409550300991
  N   5.89361723558048     -0.20360328627064     -1.78410832423945
  C   5.16846732551567      0.90940169175299     -2.07237765139343
  N   5.46868928041042      1.82926999342598     -2.90613905841165
  O   3.92457155696075      1.08532549456775     -1.46051836711227
  H   4.53472536286678     -3.53924712406870     -0.74522466734181
  H   5.78837442902499     -4.21962093762927      0.31574980992407
  H   6.67637688318622     -2.60323742345450     -1.46097068567261
  H   8.05678856395502     -1.23941089737484     -0.11060504118311
  H   8.00488154176178     -2.85944416156307      0.57521034323230
  H   6.46806171659489     -0.63302005635632      1.69739291739231
  H   7.42742970697220     -3.20200384818583      2.70787294275319
  H   7.49133687255285     -1.79730716090673      3.75977430108093
  H   4.99778246695394     -1.53270880263790      3.53567843031793
  H   5.54129064046513     -2.99743293057968      4.35442151968567
  H   5.10402343495156     -4.20224856756520      2.36162728500960
  H   6.36591564288758      1.57270794820835     -3.30844591929194
