28
Coordinates from ORCA-job 11275optt
  Br  1.95775438316621      1.61439726131479     -0.00972944622966
  C   3.53530260025030      0.58532412292810     -0.25737879753839
  C   3.45423567915177     -0.83083611974998     -0.39325187907970
  N   2.21104046805296     -1.47360072400014     -0.20725641868893
  C   2.19773519386674     -2.91028420761397     -0.06732469260589
  C   2.51498621143043     -3.44153646571902      1.35335932651499
  C   3.95269169603640     -3.12192261719924      1.75748838670681
  C   4.93309471712105     -3.54918794904296      0.66496855186683
  N   4.57174078876237     -2.99726365612378     -0.64865359148981
  C   3.26340216685142     -3.46710480229286     -1.04378199750474
  C   4.60590454100074     -1.55589124776707     -0.65015430329847
  C   5.83738949853750     -0.91294367099462     -0.77213902726142
  N   5.84703559905134      0.48877040316313     -0.73159723131638
  C   4.74818296847936      1.29684258611559     -0.42106569780121
  O   4.92514143959047      2.51834505382495     -0.33059695161436
  C   0.86666575980547     -3.41407808112024     -0.45769496921191
  N   -0.15483871792035     -3.85032667162878     -0.74563184192180
  H   1.58022840422896     -0.97286417347803      0.40560458761078
  H   2.35829625224424     -4.52642540275160      1.34930216945742
  H   1.80084287726148     -3.01183472281423      2.05955172805994
  H   4.19187862843642     -3.62756535709754      2.69628883606281
  H   4.06046778667849     -2.04816092877793      1.92660451456962
  H   4.94836330886934     -4.64158488633683      0.57518584625224
  H   5.94075972408228     -3.21033031772018      0.90356886670402
  H   3.23663277502840     -4.55926103784336     -1.02003155956709
  H   3.03770068851329     -3.11898299161720     -2.05165727457001
  H   6.69975651063050     -1.40617784028169     -1.19640202050367
  H   6.72060805079227      0.98648444462472     -0.69257511360204
