25
Coordinates from ORCA-job 11287optt
  Br  0.91867203370028      0.31831769875592     -0.37517373657809
  C   2.82269433225748      0.29138250446193     -0.26326138312033
  C   3.50540380730459      1.51593983010049      0.01757496064957
  N   2.74737652234868      2.54906968966716      0.44646345843136
  C   3.27291226685655      3.53286034682179      1.17371009288834
  C   3.02624912787579      5.03133247949691      0.90463480528313
  C   4.43188992613634      5.51057274186608      0.36027899636687
  C   4.96639307044459      4.11636863768773      0.08681806174056
  O   4.66259307455633      3.45734768549847      1.30089971271423
  O   6.23932152672445      3.71320874406362     -0.26250295969698
  C   6.06354139930516      2.37150386694193     -0.74299870211116
  C   5.87546432012729      2.46924334736080     -2.21380935621652
  N   5.74034177571413      2.55316791094385     -3.35019153547728
  C   4.97065610573853      1.36016709159564     -0.21604352085322
  N   5.54134549109221      0.16861581636518     -0.30113019950821
  C   4.83482387270772     -0.95575080870348     -0.31981159118637
  C   3.44480157292181     -0.92208627023488     -0.39116251703145
  H   2.75750955892385      5.58233322696120      1.80580685676190
  H   2.23767482893720      5.16335988681318      0.16406133004052
  H   5.01043401665649      6.02235213614872      1.12869785756069
  H   4.35641066596878      6.13106235978843     -0.53131095969706
  H   4.30525352217866      3.74488814768872     -0.70923653687453
  H   7.00056012919653      1.85048355177075     -0.57236389618256
  H   5.38495773940791     -1.88806358413870     -0.35688601184720
  H   2.86771931291854     -1.82367703772148     -0.54306322605621
