19
Coordinates from ORCA-job 11296optt
  Br  1.13321041965589     -0.24476298462925      0.08711750095937
  C   3.01134971516455     -0.10774094978451      0.02333340645390
  C   3.86227101614471     -1.26363510854303      0.01269427744556
  N   3.41828287378217     -2.48145144550089      0.01094932216299
  C   4.56160363588913     -3.30111354101512      0.00771268418618
  C   4.53059962255862     -4.68057773257673      0.00258573399823
  C   5.66346719483141     -5.48775064383444      0.00419810404715
  C   5.48793061529544     -6.93647827295190     -0.00254813117700
  O   4.41065491674924     -7.50265069287852     -0.01117017596534
  C   7.02729041455967     -5.00298367523599      0.01393414861755
  O   8.03033062641130     -5.69372983010275      0.02181509249978
  S   7.31788812672349     -3.22000383258159      0.01304528787030
  C   5.74197148078304     -2.54892667652018      0.00940628297181
  C   5.36133052172377     -1.16417112267580      0.01111885929197
  O   6.03121236118743     -0.12378267712630      0.01350517151779
  N   3.83159062827956      2.16842988296168     -0.04424976762846
  N   3.47835276548590      1.10154619363277     -0.01276348557127
  H   3.56907370046931     -5.18314153156228     -0.00308953659921
  H   6.42458936430528     -7.51607535907512      0.00040522491870
