21
Coordinates from ORCA-job 11297optt
  Br  1.09629207458630     -0.14411287638955     -0.00284157124043
  C   2.95776050597403     -0.29436645385006      0.05726658609096
  C   3.63925180573601     -1.46499643079782      0.05489599322803
  N   3.02778402686523     -2.68047553201155      0.02133327013392
  C   3.81110058233658     -3.74418465617399      0.00667327298145
  C   3.48677269781986     -5.11472378825234     -0.03358944144628
  C   4.66330315830372     -5.85472493078109     -0.04177535256748
  C   5.79157088466904     -4.96557356542443     -0.00572554630098
  O   7.00650936542931     -5.15530339842297     -0.00011239368294
  N   5.21166827040799     -3.67398790337729      0.02557532297008
  C   5.85735465521608     -2.46760506461818      0.06727953139348
  C   5.10758606654726     -1.34845910030284      0.08624918619846
  C   5.60952685654536      0.01307819260393      0.12946107301068
  C   7.04388690384450      0.37798075089038      0.17546173302243
  O   7.95845743731605     -0.40536889548666      0.18713307908246
  N   4.88315657397302      1.08154241393973      0.13386064938161
  O   3.54069584071445      0.96760278215193      0.09571984185863
  H   2.47256917363158     -5.47881116365627     -0.05483815799850
  H   4.76891840565315     -6.92665899320343     -0.07203317702977
  H   6.93599439830249     -2.49837512586286      0.08274595434451
  H   7.20884031612793      1.46952373902538      0.19926014656969
