25
Coordinates from ORCA-job 11306optt
  Br  1.06777220510662     -0.32125813898091     -0.18732059236319
  C   2.97774992911356     -0.23218607896422     -0.09560236860507
  C   3.62700965468576      0.95711799783560     -0.36547475397623
  N   2.90513859603920      2.08330537905081     -0.81133726907066
  C   3.17365943326071      3.37515725715078     -0.36693158030504
  C   4.35645448948728      3.92926573587943      0.01107588267053
  C   5.73551416012427      3.36702094322258      0.01670819122996
  N   5.80077312125598      2.13120147208245     -0.75278378927886
  C   5.03612503021472      1.03514239025937     -0.23374616461209
  C   5.72464751734439     -0.10626011628931      0.25826650565395
  C   5.08261081786039     -1.27125958744691      0.55471409748857
  C   3.67171916362208     -1.41104432009427      0.35884301564685
  C   3.03999997921101     -2.63238949251207      0.60465695485967
  N   2.54820219794160     -3.66344147686713      0.83357644403254
  O   4.16593309748733      5.24320993396951      0.34830205612027
  C   2.85560535414969      5.51449243861189      0.18079780982266
  C   2.19250332667156      4.41957292321467     -0.25136008305961
  H   1.91856539870039      1.89751809887589     -0.90541675733788
  H   6.07729261718956      3.14831338231705      1.03151792408861
  H   6.42757958041534      4.10362076350759     -0.40772003147414
  H   5.53789499232712      2.33010355062020     -1.71384039178824
  H   6.79909651297871     -0.02797174132615      0.37499673046832
  H   5.63402004525364     -2.12297296407803      0.93291459217278
  H   2.54172568822387      6.51751415234149      0.41243614947277
  H   1.13740709133513      4.34122749761965     -0.45727257185649
