25
Coordinates from ORCA-job 11305optt
  Br  0.73109416109477      0.43275155090444     -0.69303387842312
  C   2.63892693305855      0.34635525125789     -0.59130925297773
  C   3.29739183934102     -0.84371349830844     -0.71540680956935
  N   2.62956702921587     -2.02596712942209     -1.09289399711540
  C   3.17629404568873     -3.25460210206269     -0.53587347082099
  C   3.28842658790770     -3.28845542065989      1.01183848810543
  C   4.78903264818491     -3.18027220646025      1.34388802999156
  N   5.55077214698194     -3.33248783875963      0.09398084118711
  C   4.60889105657617     -3.41888743866178     -1.01382359239138
  C   5.40183428966445     -2.18629549049688     -0.83924406631733
  C   4.69869510236677     -0.93409304443615     -0.46834370771718
  C   5.41151568391530      0.13664446591180      0.11521512607808
  Br  7.18207046533436     -0.26209665839639      0.76168784663474
  C   4.97303148838880      1.45250652343240      0.38630396538918
  N   5.52751687602071      2.44592152386028      1.00049961840752
  S   3.39518770500271      1.89914157485600     -0.34954443917127
  H   1.62867058526791     -1.94765468255190     -0.98545793960972
  H   2.55282932264156     -4.07153318774192     -0.90045698295520
  H   2.88254067356029     -4.22949804296427      1.38828751319361
  H   2.70900162604111     -2.47280953821904      1.44656991590111
  H   5.10669200661264     -3.97281574258179      2.02279754029904
  H   5.03664885046660     -2.22124656618869      1.80175503716654
  H   4.82193043171938     -4.12750641409960     -1.80486988690747
  H   6.29716576153980     -2.05852895542214     -1.43767391897704
  H   6.45727268340788      2.17714306721075      1.31510802059925
