24
Coordinates from ORCA-job 11302optt
  Br  1.02963130603786     -0.05832177419536     -0.06834649609854
  C   2.95540608426448     -0.11381174323959     -0.08310296262479
  C   3.59525960142066     -1.25167818177686      0.20667775219809
  N   2.92187341735056     -2.47297621352910      0.50127878013601
  C   3.71449516866561     -3.56969933281518      0.25038867831150
  C   5.00413917996171     -3.57109906604730     -0.03932160378594
  C   5.79842825721069     -2.32632875546769     -0.16636545602733
  N   4.97850646273909     -1.24505982495997      0.38683119040419
  C   5.68302623698719      0.02509784220113      0.45319795648098
  O   6.90578821160586     -0.02060877203389      0.71559301708445
  C   4.95919254456611      1.22091286712335      0.17904177398981
  N   5.46036299692877      2.42658752937392      0.13954801039015
  N   3.56866573608980      1.11592766437538     -0.13457396404843
  N   5.36293632724779     -4.93200109804239     -0.19544891762075
  C   4.25493923018020     -5.70452448794812      0.10191334453422
  N   4.08140486811811     -6.95851200945091      0.16927845167604
  O   3.21155136102540     -4.84618342060724      0.33213985675381
  H   1.98637507624030     -2.51596453021815      0.11775450482633
  H   6.07778546939907     -2.11949072976275     -1.21074411451660
  H   6.72054958054011     -2.34611921749219      0.41534465357546
  H   6.45351191665678      2.33481729828977      0.34574092075787
  H   3.29051727719335      1.74050344365541     -0.88092688065641
  H   6.28235201755593     -5.28237216487789      0.01417909502088
  H   4.93930167201442     -7.44609532255430     -0.06607759076101
