27
Coordinates from ORCA-job 11308optt
  Br  1.35171287894871      0.00507857670211      1.16527765928227
  C   2.84451599136809      0.17417554874161     -0.08308177458479
  C   3.62895259801028      1.32913806658171     -0.07789789358264
  N   5.06718936155293      1.20933203221692     -0.10583985128205
  C   5.90840187246481      2.40668376220280     -0.06637595537847
  C   6.44687778264534      2.75278195359863      1.33134564075838
  C   6.69167551352716      4.27656728743702      1.25583008809588
  N   6.17355228130057      4.74425116228183     -0.04940314390487
  C   5.23402696218111      3.70797503503879     -0.49600704736441
  C   3.89261220078589      3.85108276775768      0.18562662318349
  C   3.01726028388769      2.62529530055927     -0.00952700279841
  O   1.79539058958769      2.79389856789939     -0.08546903212913
  C   5.78969559222752      0.06718940060429     -0.06021296576671
  O   7.01714120438935      0.07384705261716      0.06029593504770
  C   5.12662380720435     -1.28764622920362     -0.24918956320839
  N   5.82842743977142     -2.34105755602728     -0.26708590463748
  S   3.42197780758276     -1.36103901633994     -0.62527174529951
  H   6.75558477570539      2.21217595932457     -0.72519564156503
  H   7.34124384880857      2.17774367479547      1.55657627390742
  H   5.69000721035487      2.50637941322967      2.07794434777698
  H   7.74763289811954      4.53291494649745      1.33978789528877
  H   6.16866544049056      4.79652017317757      2.05985621609672
  H   6.94290470288232      4.78146829195936     -0.70795239206398
  H   5.10970590139318      3.76327526721751     -1.57876469075274
  H   3.34761640894565      4.71149780727369     -0.19925212155438
  H   4.03820271609772      4.01425071733501      1.25868879590952
  H   6.80140192976639     -2.05777996347875     -0.11770274947416
