27
Coordinates from ORCA-job 11309optt
  Br  0.77066586954412      0.49139420601074     -0.56844223163068
  C   2.65074713972289      0.41646369152380     -0.29609842421656
  C   3.29982286248474      1.47717786333248      0.29011991753649
  N   2.61397148385952      2.62676329198038      0.73202708449279
  C   3.41987297968841      3.80745052911494      0.96810323928795
  C   4.57319952307563      3.42743124683244      1.89257908790783
  C   5.42332002064784      2.64958640095963      0.89221832163491
  N   5.54343901790335      3.67204587725635     -0.19642638295565
  C   4.21391328847489      4.33255447352034     -0.27731236825660
  C   3.49733578679920      4.08247081453665     -1.52415015142786
  C   2.88334739738838      3.82957170321724     -2.52293324725771
  C   4.69994568817775      1.41296493685651      0.45573097893287
  N   5.43517181646386      0.34775834320411      0.00073221434896
  C   4.79936574314979     -0.65540676314482     -0.54384123579434
  C   3.39431651937481     -0.74456244144454     -0.73319372038540
  C   2.82725024583328     -1.86761929741885     -1.34282954712828
  C   2.35633654218303     -2.85166532588463     -1.88001146819648
  H   1.78811141194463      2.80404727247722      0.17563496340649
  H   2.76947139347577      4.58864144542844      1.36204132997839
  H   4.23703960456388      2.82569963868611      2.73417622382081
  H   5.09947878165604      4.31805751209878      2.24113153025765
  H   6.42086595205210      2.39429771165700      1.24879235628300
  H   5.73604731472258      3.18988176438527     -1.06758157929796
  H   4.34739032751023      5.41455879456189     -0.17173225373958
  H   2.34197171493175      3.56936770327098     -3.40019615792269
  H   5.40196406546727     -1.49353507864730     -0.88653369399545
  H   1.93663750890416     -3.70739631437121     -2.34700478568288
