28
Coordinates from ORCA-job 11301optt
  Br  1.12074682344388     -0.52944872993585     -0.23502061232748
  C   3.04586088892251     -0.39196843172672      0.00471232142654
  C   3.80765846593056     -1.38802834834781     -0.52590514406042
  N   3.39787005710304     -2.50187650618820     -1.28697664881952
  C   3.76429070994972     -3.80173780944264     -0.72107052712779
  C   5.15271748443013     -3.68778981940052     -0.05713789986135
  C   5.93178159626931     -2.51239204151390     -0.64493090440963
  N   5.19682050435859     -1.29158779380107     -0.39875138360325
  C   5.76272783227237     -0.26590249091096      0.42278386996707
  O   6.98546211158085     -0.30331361701346      0.64575680018217
  C   4.83876908623241      0.69731933136089      0.87063789290907
  N   3.48712479015262      0.67303864870445      0.64678015765359
  C   2.71775756908993     -4.25986434797130      0.28832814267625
  O   3.01121634695195     -5.57609728364795      0.77457164030197
  C   3.46520154290225     -6.43740797712254     -0.15692334472990
  N   3.80269559411041     -6.21457258007644     -1.34860063436938
  C   3.77727141772175     -4.83874634507981     -1.83832071207576
  H   2.41072041190458     -2.44540554976902     -1.50584801789606
  H   5.69747949459909     -4.62603060775250     -0.18298821491688
  H   5.03762132716293     -3.51339452796232      1.01560762073804
  H   6.07956232751611     -2.66307778951250     -1.72028116743044
  H   6.90565790769524     -2.39158337356987     -0.17427708586361
  H   5.23386479918375      1.52736812761341      1.43983007757568
  H   1.72833631201967     -4.28084425015958     -0.18119635339897
  H   2.68697744337358     -3.59842039453049      1.15292152656840
  H   3.52655227106734     -7.44097236260519      0.25593353245431
  H   2.89684911457798     -4.70675749164235     -2.47491525748620
  H   4.64940576947733     -4.68350563799569     -2.47671967407646
