24
Coordinates from ORCA-job 11304optt
  Br  1.34353693957098     -0.59929523942203     -0.73430549767044
  C   3.22145638860409     -0.41665170622979     -0.54961029967184
  C   3.88497233302663     -1.17181365983002      0.34678452097760
  N   3.27411764543225     -2.12204707888091      1.18059420217186
  C   4.09087465134920     -3.27352185588227      1.55546039502321
  C   5.37385212785532     -2.69934692230807      2.18674439697856
  C   6.03680937829255     -2.11499367085515      0.93115114781200
  N   5.24020434357878     -0.96297679557769      0.52051220651011
  N   5.98079478000334     -0.17764399011859     -0.43061289321373
  N   5.28416583388130      0.66715114142184     -1.17733748026487
  C   3.93008276912902      0.63469004503226     -1.29311985850772
  N   3.24661658555428      1.45515976805921     -2.03452276743346
  C   5.82247027021720     -3.26675043224060     -0.03739211851574
  C   4.69739248701302     -3.93947444819874      0.33470210765629
  S   4.27692182063736     -5.06005231120163     -0.87582166271747
  C   5.68311808521501     -4.56991285515077     -1.76452188003011
  N   6.38889547786939     -3.62779329919817     -1.22392434540398
  H   2.35282283874746     -2.35453169253567      0.83332417680373
  H   3.51147715221712     -3.92006396663925      2.21044511847999
  H   5.98314253684665     -3.49439803523312      2.61526544761510
  H   5.15041773692432     -1.93608566106090      2.92918517879968
  H   7.06303391132466     -1.77603086418797      1.03933673198633
  H   3.92160183371610      2.08567358809557     -2.46685399117891
  H   5.92822207299391     -5.05129005785751     -2.70048283620616
