31
Coordinates from ORCA-job 11310opt
  Br  1.86215712724296     -1.06683416071546      2.87966277398300
  C   2.68533404426209     -0.47805356299990      1.24259415345693
  C   3.37330628136299     -1.33557736076051      0.41566504332254
  N   3.09358182571068     -2.73538901631404      0.38513193057353
  C   1.85704368917642     -3.06800728361431     -0.37578001421822
  C   0.58281748034828     -3.19824694367139      0.49363814496877
  C   -0.26663973740397     -1.93645797579058      0.20807961175399
  N   0.59879364500131     -1.13819131876256     -0.61461602621279
  C   1.42517833657597     -2.00694491221980     -1.40786528250829
  C   0.33689727415551      0.22392640473176     -0.95532178434171
  C   0.12009514336985      1.10607339921200      0.27635683021328
  N   -1.04184613465844      1.49209216778664      0.66210913039898
  N   1.23182853247046      1.51187945990293      0.96802770028708
  C   2.53058738631566      0.90392570748601      0.87457257896861
  C   3.48540119286436      1.35895018587010     -0.06662350903155
  C   4.34316725523772      0.46354908905653     -0.65326737678179
  N   4.22501027218752     -0.89497609413884     -0.52213958691394
  H   3.87400079670162     -3.14620867017991     -0.11553773484753
  H   2.06535515642478     -4.02081109663396     -0.86444491122452
  H   0.85723293327246     -3.27627947539455      1.54166180757285
  H   0.03245084692511     -4.09867551181358      0.21411013119772
  H   -0.53640485443985     -1.39727535383568      1.11799396310465
  H   -1.20421672647190     -2.21256786288727     -0.31264937903390
  H   2.27116055227303     -1.46857159354128     -1.83491709165381
  H   0.86588372901946     -2.50177876932118     -2.22721952518361
  H   -0.55301454379750      0.35435718823426     -1.59821115660830
  H   1.20722439200909      0.59663099122902     -1.50180648244004
  H   -1.74841541141896      1.13689353026095      0.02484299026110
  H   0.98261959175284      1.96024741029601      1.83957116250750
  H   3.51371582062419      2.40823413803744     -0.34847686209130
  H   5.11669410290619      0.80608729049119     -1.33314122947921
