24
Coordinates from ORCA-job 11314optt
  Br  2.46170711260593      1.48905702624222     -1.88171792421128
  C   3.08488263868718      0.03953843492908     -0.80949227021310
  C   2.92198258326467     -1.22638420689073     -1.24013119959662
  N   2.00627471967193     -1.60257158893217     -2.27363505490814
  C   0.82737405426461     -1.96701679190197     -1.51291801721099
  C   0.69354819031036     -3.06219471953697     -0.69094762990185
  C   -0.30415302979030     -2.70591800601099      0.27327726432700
  N   -0.89411590456719     -1.48955016821076     -0.07134115593375
  C   -0.18327564420644     -1.03866946989072     -1.08312242737153
  N   -0.57515447014698     -3.34751486050713      1.39461896287385
  C   0.41059377056900     -4.11239228145302      1.94874787362621
  C   1.69272555292820     -3.77304514922764      2.26462131923265
  N   2.27525048552959     -2.50252325275692      2.23437254410304
  C   2.93089501926254     -1.87415528498788      1.36663047648173
  S   3.55978195518180     -2.52767439536580     -0.20409503839826
  C   3.33481016028770     -0.47765332978189      1.56478558897360
  C   3.45569984756114      0.39120314314270      0.54099673290586
  H   2.35735950738449     -2.40170553606872     -2.78867323343859
  H   1.28860428121203     -3.95745512054945     -0.66126333993420
  H   -0.35933649244933     -0.06234137325135     -1.51887530956174
  H   0.09434850207844     -5.07235961085888      2.35402902236394
  H   2.22424276989339     -4.46126804607705      2.91399393364025
  H   3.43752881362119     -0.14813845833984      2.59100516768870
  H   3.70042557684602      1.42573304628587      0.74213371446322
