27
Coordinates from ORCA-job 11316optt
  Br  0.87140687552416      0.38728491853340     -0.90113017342928
  C   2.76643408631227      0.35690210760372     -0.67531666841763
  C   3.40869058139961     -0.90067507825812     -0.70421165569408
  N   2.64314163691328     -2.03822056617427     -1.12122293412704
  C   2.01787087038876     -2.92365345687080     -0.17039780494729
  C   2.83920032879332     -4.21458448075695      0.12462889762946
  C   3.62698020067486     -3.71634886623163      1.36021852347813
  N   4.94202121667038     -3.21489081327422      1.12682628352434
  C   5.29635796175108     -2.47913149035719     -0.09938049676821
  C   4.73931959803835     -1.08588614743759     -0.27882780143575
  C   5.57244033150693     -0.04230464297316      0.04042296277042
  S   5.14089546587677      1.62986417051226     -0.17897810005493
  C   3.34379679390624      1.60682206812415     -0.36457570302009
  N   2.72259141241259      2.73638896783947     -0.27285544732459
  S   2.22558868608956     -2.54413739583502      1.61920670995382
  O   2.53275165034675     -1.22902596407313      2.09114612267884
  O   1.17610768926392     -3.29421568374251      2.28123917270140
  H   3.12328713626250     -2.57558365510624     -1.82974908143923
  H   0.95817453800160     -3.08697741793781     -0.37702680846797
  H   3.47150524122100     -4.50984151706296     -0.71042586651745
  H   2.19363733209300     -5.04422448985032      0.40316730264732
  H   3.63573646925189     -4.40910050896688      2.20269457394263
  H   5.25917275945778     -2.69160175013099      1.93517764498195
  H   5.04999175783295     -3.11774108448435     -0.94922276826794
  H   6.38551008064718     -2.41124362032872     -0.08581108734396
  H   6.57356148211487     -0.20549321924198      0.41749569471667
  H   3.37082781724834      3.48161961648190     -0.03209149176954
