27
Coordinates from ORCA-job 11311optt
  Br  1.22817394096028     -0.45834662786453     -1.52599917713314
  C   2.94597183096911     -0.14167777775547     -0.74060157614843
  C   3.64784797713630     -1.26417170627860     -0.21788078160309
  N   3.03693405653888     -2.55184551529503     -0.29948921264402
  C   3.95408458174031     -3.61921895502432     -0.05621387535960
  C   4.72375031403669     -3.29376867067454      1.20711283139331
  C   5.45482051801910     -4.59427383602423      1.49076029310964
  N   4.46992509298727     -5.63123144212332      1.10289462031211
  C   3.38093020747277     -4.98522561748746      0.32244614604341
  C   2.96449024679417     -5.80006335593988     -0.81294640563824
  C   2.63710480706491     -6.46845064595692     -1.75303378723024
  O   5.55574296818244     -2.19599114963151      1.00701071034062
  C   4.87285824023245     -1.10153117533316      0.45066552521737
  C   5.50692235736132      0.10307334112378      0.63031618344496
  S   5.01798616639333      1.55553080447143     -0.18967234541642
  C   3.35029370965871      1.20438259944930     -0.77030900658979
  N   2.65995180025345      2.20166692641520     -1.23030294340537
  H   2.48677186743851     -2.65177587982341     -1.14317010634109
  H   4.69379334925429     -3.75956240535203     -0.86250215343192
  H   3.99337824865473     -3.07857507204763      2.00018929667546
  H   5.73540174253372     -4.70112323569988      2.53872779592280
  H   6.36183955527030     -4.62586693760807      0.88035656918836
  H   4.90233773278624     -6.35487819168216      0.54662712251228
  H   2.51181259911910     -4.82219970780172      0.96799665430498
  H   2.33859019555437     -7.04878196496818     -2.59209965156256
  H   6.40789505310319      0.16315216711820      1.22150283272803
  H   3.17739084048391      3.06975403179420     -1.12338555868943
