20
Coordinates from ORCA-job 11313optt
  Br  0.99140081369286     -0.32881224559733      0.25372970210761
  C   2.85663249438773     -0.05825069476898      0.13910462505891
  C   3.36281412112762      1.21949742845414      0.06117896111978
  N   2.59509478490032      2.32475841798540      0.05531955101922
  C   3.17393687715578      3.57968180669314     -0.01447993902747
  C   2.66574065063645      4.85414576984477     -0.03148819638196
  C   3.83554018290652      5.66634094872309     -0.10899693773941
  N   4.98649523141766      4.97723276402474     -0.14039273104748
  C   4.60681811706238      3.67762553774269     -0.08278174736318
  N   5.41935875655895      2.62281241156205     -0.08730174215324
  C   4.81006326803735      1.40523261085984     -0.01804432404647
  C   5.55113948648117      0.25997224082501     -0.01621298818456
  O   5.03217263492910     -0.98469881066769      0.05753975232316
  C   3.67790085453215     -1.22900672536556      0.14205571775370
  O   3.31889397756646     -2.37899230063453      0.20947992899960
  C   3.80920769456759      7.09057971287263     -0.14337615051401
  N   3.73938838332798      8.24033148803637     -0.16803434612826
  H   1.59342835591746      2.21186008200698      0.10868678719688
  H   1.64248114596364      5.19044972104683      0.00469882326161
  H   6.62849216883079      0.27123983635638     -0.07368474625444
