23
Coordinates from ORCA-job 11329optt
  Br  1.17209541810827      0.25501748035582      0.01065434829299
  C   3.03626967994311      0.02377187856699     -0.24812553352343
  C   3.62404948913824     -1.22520566976669     -0.12725749105594
  N   3.12860253669856     -2.46702678094883      0.16803361047160
  C   4.14938105377501     -3.41706359041308      0.15478192167499
  C   3.94637722799870     -4.76027810862911      0.40675150117120
  C   4.97387456108923     -5.75534219533149      0.37449376495755
  N   4.65852984159606     -6.98422267645287      0.62082444965917
  C   6.40701686703733     -5.44748144170794      0.06227827108900
  N   7.08508190331580     -4.39292878157859     -0.21284303625176
  N   6.61094925079276     -3.16215055220128     -0.30227059950183
  C   5.32879304833840     -2.70054444013219     -0.16154908983195
  C   4.99984201965024     -1.34339398825102     -0.33440612061058
  C   5.82715466175173     -0.21035525791570     -0.67256637504909
  O   7.05116841434699     -0.35325581919775     -0.85389252790921
  N   5.19023613792467      1.00305498847945     -0.77702414750160
  C   3.88425080186500      1.08323038550885     -0.57343991558469
  H   2.16303769664219     -2.67150567100933      0.35540993809284
  H   2.95066223037394     -5.11651106972820      0.63700540150122
  H   5.48402294813576     -7.57755365941261      0.55581541491315
  H   7.02651838058050     -6.34147661549372      0.07631501617028
  H   7.28215987222111     -2.43671866117391     -0.54078499683128
  H   3.44092595867640      2.07194024643323     -0.67320380434263
