21
Coordinates from ORCA-job 11324optt
  Br  1.10457732733379      0.28370183473364     -0.06837813325330
  C   2.96146406234523      0.06311113190602     -0.08162516807251
  C   3.58000328331424     -1.15744054290700     -0.07335019833349
  N   5.01628687398039     -1.15149565567194     -0.08538277205096
  C   5.43641405388288     -2.43625665662999     -0.07346536857681
  C   4.31481255192785     -3.30303651842794     -0.05491516345228
  C   4.57141393330539     -4.65285556873079     -0.03981913742113
  N   5.82683774281301     -5.12766940196903     -0.04309164325705
  C   6.79555146714921     -4.21562682471109     -0.06164983339784
  N   6.69256845810150     -2.88789299259775     -0.07705803862982
  C   3.08217462634427     -2.50498661368353     -0.05385396625473
  O   1.91583785169869     -2.91295167902778     -0.03912320614076
  C   5.70633510731161      0.09610271487203     -0.09630108681469
  C   7.15457073546523      0.14687973360096     -0.09775897156789
  O   7.79693425191344      1.19376544162036     -0.10429675149741
  N   5.04213386623482      1.23436570820555     -0.10402846226237
  N   3.70389155247169      1.19150921447618     -0.09884004127976
  H   3.75944026167777     -5.37184807789132     -0.02387867617169
  H   7.81018993103962     -4.60177160805792     -0.06433425877410
  H   7.65382186999532     -0.82719431276994     -0.09211317982192
  H   3.25074019169397      2.08959067366127     -0.10473594296949
