27
Coordinates from ORCA-job 11322optt
  Br  1.26897152211269      0.87330160719340     -2.47983723463046
  C   2.87623681179410      0.55182198246325     -1.52066353802219
  C   3.14622178925894     -0.67069781450240     -0.89670005260342
  N   4.39574272564812     -0.68901435674919     -0.16605568754438
  C   4.48954467673138     -2.00441369611652      0.38268066510035
  C   3.23380653888072     -2.22782164685775      1.28833513244701
  C   2.43551736504469     -2.93703781931055      0.24130962018264
  N   3.26353456688701     -4.15817434101502     -0.07788595210957
  C   4.52180529731392     -4.36597325377635      0.67883900458684
  C   5.42053255269353     -3.07841142467244      0.83214518758851
  O   6.54875561508986     -3.12933440245239      1.23004768513504
  C   2.30407487658654     -1.87436943599504     -0.91980870743614
  O   1.38988036714288     -2.05368526027473     -1.74319659543049
  C   5.23925571221165      0.38080073737737      0.11033166081330
  N   6.28338241971388      0.29654733095465      0.86657812988596
  C   4.85807366818926      1.59382768533806     -0.56216345844505
  C   3.73006429500870      1.64497731195399     -1.34384878661959
  H   4.27393667681973     -2.54813259748863     -0.54510412152624
  H   2.83041862648389     -1.25847517070673      1.56737561545096
  H   3.42520590121912     -2.80950853045927      2.18878879406612
  H   1.41966493490669     -3.23724564235406      0.50346639406997
  H   2.70349020283857     -4.99681609311286     -0.07999432380485
  H   5.13111964442073     -5.09082245778027      0.13581290769335
  H   4.38329133749232     -4.75694744679859      1.69508348772718
  H   6.41887552386351     -0.65029463127020      1.21677756692593
  H   5.49858557296273      2.45174337237268     -0.42479195179552
  H   3.46501077868475      2.57515599403959     -1.83152144170523
