22
Coordinates from ORCA-job 11336optt
  Br  1.33946508059938      0.11510104234683     -0.01975343314690
  C   3.20113536210327     -0.05143727825028      0.16471658794690
  C   3.82290498812616     -1.24602200369639      0.08308385988829
  N   3.36000094140082     -2.49669529306448     -0.11840921757468
  C   4.41680054954137     -3.43387091644047     -0.13932976705355
  C   4.20315237571112     -4.74652133402383     -0.32625174946217
  C   5.18686509411131     -5.83774285987218     -0.36785489203630
  N   4.67913296543291     -7.01361649378936     -0.51970514882443
  N   6.56571495999985     -5.69577295952942     -0.26704708276352
  C   7.24615961482368     -4.59009096122594     -0.06651689194873
  C   6.91275064221129     -3.23711026508283      0.10188721672428
  C   5.63707582758288     -2.68604163390330      0.07427511994405
  C   5.26648532077280     -1.31733599889204      0.21914600570642
  N   6.02914492619805     -0.27749600076676      0.42842029363825
  O   5.34920323574584      0.94568302482567      0.51809966067885
  C   4.00100060083076      1.13070439743684      0.40092137154213
  O   3.58010635937508      2.25677771592944      0.50260299511695
  H   2.39003503056824     -2.72566661247257     -0.25331462703662
  H   3.18286248661821     -5.08659460852281     -0.46180956822188
  H   5.45526579558133     -7.67480998596092     -0.53576290804605
  H   8.32154875586615     -4.77132260677402     -0.02121061923715
  H   7.73818908679941     -2.55411836827112      0.26081279416586
