23
Coordinates from ORCA-job 11332optt
  Br  1.18845851272390     -0.11112018094562     -0.23738593068172
  C   3.08919560687868     -0.03245355254193     -0.10574233763606
  C   3.71447856907130      1.19807574724064     -0.04834416164680
  N   2.95996161386268      2.37668093740020     -0.07216552154866
  C   3.59392082852418      3.57848754111380     -0.01448790136539
  C   4.96536488634624      3.72819918089006      0.06802946291526
  C   5.14028504804633      5.13148947221425      0.10441847273020
  N   3.99185528742565      5.78542264705366      0.05066910357026
  N   3.04830509746040      4.81098407395167     -0.02334673611410
  C   5.80065000816517      2.55887713539490      0.09495901571844
  C   7.19148967120232      2.67828459624553      0.18070673416294
  C   8.39569501154130      2.79949177665366      0.25556346520732
  C   5.13600658447663      1.28665962985555      0.03613121731589
  C   5.83468073281881      0.05872256957533      0.05675461658917
  C   5.21102235608057     -1.15482060359266      0.00628908188616
  C   3.77627749985500     -1.29994483908385     -0.07722263838901
  O   3.20038044100682     -2.40320491020992     -0.12099854567093
  H   1.95806307170486      2.29180925107691     -0.13321908625413
  H   6.06735764320713      5.67939078763722      0.16715249909748
  H   2.07889551479195      5.06379743261505     -0.07696742402891
  H   9.45104512088261      2.89510352814303      0.32349703098407
  H   6.91600690129738      0.10699727602862      0.11877030535767
  H   5.78060399263000     -2.07592949671615      0.02693927780086
