29
Coordinates from ORCA-job 11342optt
  Br  1.22475481090934      0.01147388478137      1.35883517887911
  C   3.02939621359290      0.00808475202572      0.74731079049887
  C   3.54878785932927     -1.15599781748318      0.12095072663385
  N   2.84758575335135     -2.38662646791233      0.25333998577125
  C   3.23327249027508     -3.35776437538480     -0.73182563978035
  C   2.76519823161661     -4.80447066392985     -0.49542286825449
  C   3.91606832727731     -5.62171915321079     -1.11756416388971
  O   4.95144177174135     -4.70532264637701     -1.46742222939644
  C   4.73883239295744     -3.54390469769484     -0.68212659676248
  C   5.43054245139271     -2.30426794672977     -1.18109784524288
  C   4.81616260365739     -1.10704708005974     -0.47834211686579
  C   5.53838697239111      0.06754245939267     -0.41228512753764
  N   4.95688949330985      1.22781887335647      0.11816861001859
  C   3.70485807151034      1.25265769954076      0.76311708537126
  N   3.24417994522263      2.34407816941732      1.30340548921684
  C   2.57030347083930     -5.04355890749220      0.98610920150974
  O   3.24989352990874     -5.77375780170105      1.66159806272937
  H   1.84902088508264     -2.22463154761762      0.30926468272378
  H   2.97697974368602     -3.05242611203562     -1.75933798313765
  H   1.80416287705450     -4.99394336642747     -0.98170664689603
  H   3.60929727867237     -6.14240431264879     -2.02494422253487
  H   4.28531713468035     -6.34834044690183     -0.38969412346654
  H   5.02162098436970     -3.73732602817311      0.36276464169560
  H   5.29677178117009     -2.24109547430564     -2.26648765185614
  H   6.50477854291411     -2.34742524971295     -0.98221642152715
  H   6.48728549832490      0.19525110630404     -0.91437137172650
  H   5.58083352427526      1.96197338285660      0.40998247899233
  H   3.89952750970737      3.10648116098458      1.14450232262686
  H   1.71884985077987     -4.50333139286088      1.43449575220723
