28
Coordinates from ORCA-job 11341optt
  Br  1.05294693215309     -0.40787452152360      0.55618605665411
  C   2.87564654122326     -0.10726527728558      0.05817372645253
  C   3.35280542002721      1.22221111675584     -0.12221133927327
  N   2.56285264458762      2.39509700425797     -0.28525543371350
  C   3.50903332387848      3.51159542458813     -0.21988556348984
  C   3.74781265072900      4.10876688998600      1.17198969373176
  C   5.20626402169562      4.53046434820796      1.08095971782330
  O   5.84541738158384      3.50977753401028      0.34437629104806
  C   4.89950002472068      2.91298662782700     -0.55665736824922
  C   4.70183278321750      1.43806162998110     -0.34434710690077
  C   5.64010307801777      0.41438772222814     -0.42966800636758
  C   5.14583415212438     -0.91722058725616     -0.21919242971906
  C   3.77512921071718     -1.13223236751311      0.03190150515988
  C   3.54514329817363     -2.60129176385382      0.26684280785027
  N   4.82701508815527     -3.19719618731217     -0.08492650610652
  C   5.82253313853241     -2.17505311092896     -0.20983334660276
  O   7.02239800701445     -2.44649835182807     -0.29817876904496
  H   1.81973592375357      2.46640128268320      0.40269007413232
  H   3.21795696297141      4.29523987217708     -0.92195656919475
  H   3.63474564672440      3.31765034735907      1.91672166976177
  H   3.07392900127186      4.93329196130196      1.40795876028804
  H   5.69975640602847      4.61455067066106      2.04998240593883
  H   5.29710810687213      5.49537238846380      0.56052950064749
  H   5.22672068633298      3.13917856751532     -1.57666373180101
  H   6.69238591405190      0.60578370095907     -0.58264213511089
  H   2.72799929567669     -2.98095092213207     -0.35302914511865
  H   3.27128753703460     -2.77568290256339      1.31521129930719
  H   5.14010682273044     -3.97955109676607      0.47092394189724
