22
Coordinates from ORCA-job 11340optt
  Br  1.07549020572758     -0.13554053850352     -0.25345366986179
  C   2.95181531828867      0.09660459258651     -0.09275497458693
  C   3.48015886532393      1.37378195744841      0.26673545331287
  N   2.62164276265601      2.43456988634969      0.56725150394224
  C   2.85957261923039      3.75835418599596      0.34963554443744
  C   4.02895524371715      4.39752131676804     -0.00272347841531
  C   5.34414099743143      3.70383191206857     -0.18789646055851
  O   5.51650655210045      2.62573933339861      0.71996809043468
  C   4.87552933364616      1.46639960489776      0.33639206895982
  C   5.65090592481698      0.38703425254330      0.02889477417428
  O   5.12663676659790     -0.84029778026754     -0.28085898795849
  C   3.73929882401745     -1.02978318830045     -0.38323182846629
  O   3.38306752727799     -2.14668889875571     -0.71642989741229
  C   3.84505088334946      5.80411747254530     -0.11104405060854
  C   2.58176954088074      6.22954552564328      0.14375630572241
  S   1.55835022593703      4.89651859795013      0.54158829644648
  H   1.65616744121872      2.15981224646670      0.67444194911128
  H   6.15328779127860      4.41187141178528      0.00983879004232
  H   5.47582966734479      3.31753536154173     -1.20583535959970
  H   6.72771433601278      0.40476077527161      0.08228223796876
  H   4.65247496037713      6.47957286697104     -0.36525555350986
  H   2.19163421276855      7.23273910559523      0.14669924642514
