27
Coordinates from ORCA-job 11348optt
  Br  1.21776562414513     -0.35920022462601      1.70790773789166
  C   3.08388572690846     -0.17581299520387      1.03127703478698
  C   3.47819230399385     -1.07033339502877      0.07040801615539
  N   2.57164308812876     -2.05129719363775     -0.48457344965941
  C   3.42551633623933     -2.99081283265297     -1.15509695908736
  C   4.45352184349464     -3.66385251164751     -0.22607811524687
  C   5.71295359972503     -3.21786047404434     -0.91363724914434
  O   5.56290452238455     -3.56878014402839     -2.34914156638836
  C   4.51285401533405     -4.46621623547714     -2.66688760789346
  C   3.06619098224009     -3.99677531738815     -2.22271538370622
  C   4.56150689188464     -4.69241661905160     -4.11913502442195
  N   4.55625241538176     -4.91248610796081     -5.24389968438098
  O   5.88677548543537     -1.86966255207899     -0.72901328973823
  C   4.81576045354478     -0.86704613310125     -0.47665927033256
  C   5.44020409358601      0.35294073718545     -0.07821952604852
  C   4.87779280683701      1.15937987708454      0.86875235623998
  N   3.71435298002497      0.88149727063344      1.51240155533774
  H   1.97339530723589     -2.43658142751719      0.23742627267367
  H   3.98490263848614     -2.29292794325672     -1.77277627288693
  H   4.34413619678592     -4.74841953817834     -0.16660619140696
  H   4.42644243618438     -3.25061491411210      0.78009939506398
  H   6.64418633898766     -3.69975919279468     -0.60809681792797
  H   4.70899114624271     -5.44307370216417     -2.21031949135047
  H   2.50892880767434     -4.87112698371676     -1.87823436929638
  H   2.52991029113213     -3.53038009635620     -3.04864815203205
  H   6.39035792839319      0.62257481862431     -0.52455662323387
  H   5.36567573958913      2.08604383049602      1.15802267603352
