29
Coordinates from ORCA-job 11355opt
  Br  1.92551379995884     -0.52282688085286     -2.01153930613610
  C   3.20337742353796     -0.04328314689992     -0.70289033937826
  C   3.40598217432506      1.25265197009868     -0.42758013547469
  N   2.90024156078200      2.39792106795315     -1.03000293178841
  C   3.30026274324477      3.57088939349194     -0.26591285229890
  C   2.20382642049537      4.07615671935482      0.69581160084756
  C   2.49363475278658      5.48955583389747      1.14607339226940
  O   1.90065437288434      6.43231181490385      0.67396588397780
  C   3.59831861919160      5.70523638196419      2.17321209015294
  N   4.88686112149996      5.11461611027752      1.86006271002181
  C   4.92782801370171      3.65642887619964      1.79019128632116
  C   4.56454825709046      3.04254381851254      0.43922153433085
  N   4.24552969050836      1.64611499206702      0.59095031756525
  N   5.25739247014098      0.81171044941596      1.08173038158430
  C   4.97168419373082     -0.49857523141587      0.87459119902727
  C   3.96464926603378     -1.05981358115104      0.04816455242784
  N   3.69502421977332     -2.33461958967170     -0.14688470236113
  H   1.96225346678672      2.34098275831013     -1.39819397752668
  H   3.54739239675868      4.38496414325283     -0.95283156051871
  H   1.25034969486805      4.09663672140893      0.16741767063181
  H   2.13142311783387      3.39245430107095      1.54512748087787
  H   3.70944347292934      6.78172653300098      2.30604138071380
  H   3.25891213915874      5.28053870014578      3.12459113269111
  H   5.29577212485308      5.53960061973372      1.03654325177372
  H   4.25362263263045      3.25652425710386      2.55096929745681
  H   5.92575038147834      3.30326525776218      2.04855146017269
  H   5.42414860621523      3.16828097509979     -0.24389687100915
  H   5.67177808267808     -1.18272423446421      1.34365187733855
  H   4.32382478412345     -2.88626903057041      0.43586417630948
