24
Coordinates from ORCA-job 11357optt
  Br  2.74111651911611     -0.52316860808498     -3.24670669856122
  C   4.03281221602375      0.40313399804413     -1.54054208607773
  C   3.58731804041504      1.55452939008505     -0.97482492536609
  N   2.80690377952985      2.54730533944951     -1.69357823434350
  C   1.57114395997667      2.60621628514876     -0.99817381512889
  C   0.88043440975706      1.47747194928214     -0.63119512414926
  C   0.31648213831141      1.76391703500372      0.63789592975262
  O   -0.08338382756234      0.81843263454771      1.55736429187737
  C   0.86065301565779     -0.22598720825353      1.69022421908656
  O   2.16752053074433      0.18413677694172      2.05364833058362
  C   3.09544537859302      0.28147630548809      1.03401637025750
  C   3.61403634409351     -0.78560826613981      0.41589493554846
  O   4.35240562134220     -0.64304601742716     -0.71943430034878
  C   3.45035239823192      1.61310784640644      0.48916228734174
  O   3.46871224338606      2.63864948981870      1.15550313807777
  C   0.48224947477981      3.09207194586525      0.90148071787849
  N   1.22704685012007      3.62105572375997     -0.14564003128561
  H   3.25703777590808      3.44900562525633     -1.77898108114330
  H   1.01934159973958      0.51830241726867     -1.10401928086795
  H   0.91903596033911     -0.80528772167987      0.76442847442028
  H   0.48529379150289     -0.83240528779375      2.51148060363361
  H   3.47174502683112     -1.81370271424607      0.72302796336434
  H   0.20234680176989      3.68199906983879      1.75534685361121
  H   1.87294995139304      4.37239399142020      0.03062146183878
