26
Coordinates from ORCA-job 11353optt
  Br  1.02768404268494      0.21019774484011      0.59200321400793
  C   2.89617631439559      0.25021043917061      0.27997975504438
  C   3.59216177198727      1.46557983367938      0.28014446729803
  N   4.97344975334128      1.39599437978852      0.04547242685663
  C   5.59834434023666      2.71841646620273      0.03055880574178
  C   6.70520989492125      2.86891794763274      1.08427582371465
  C   7.04597043626405      4.32622339318802      1.27460876271867
  O   8.17133059026062      4.75961100632487      1.31167661495435
  C   5.84296736573236      5.25172292924955      1.41404941896416
  N   4.64136114023588      4.45742350661569      1.49717023249511
  C   4.42866716931891      3.68894758560419      0.27830756388740
  C   3.18740769690686      2.81303699387635      0.44549799495778
  O   2.07832290772149      3.30751291622569      0.71115204954162
  C   5.69318279696876      0.26281199403960     -0.29553413401161
  O   6.89344749694188      0.36234837648656     -0.57651185994854
  C   4.92551326578122     -0.94900768242056     -0.27887317307976
  C   3.57043854995028     -0.92759335278259      0.00774804614721
  H   6.04354654373612      2.86436457724961     -0.95570467267283
  H   7.58723318002107      2.29747126518948      0.81133941465464
  H   6.31155461305933      2.50408951047848      2.03783217592788
  H   5.87228256050214      5.94168237145023      0.55214197936263
  H   5.98478122141266      5.84768966085341      2.31706484144301
  H   3.80584794060613      4.99055005117768      1.70320471030286
  H   4.29162986914217      4.35734389319045     -0.58723012145184
  H   5.44533735205855     -1.86587360818127     -0.51115399566989
  H   3.00715118581247     -1.85367219912953      0.00877965881375
