21
Coordinates from ORCA-job 11359optt
  Br  1.15739552542208     -0.15561923741813      0.21302736820260
  C   3.02270012083828     -0.33454654307200      0.04754937506675
  C   3.60602863198834     -1.58025226636418     -0.02454060235777
  N   3.03083603811371     -2.82347433426452     -0.01106401412749
  C   4.05825440849660     -3.65481171260734     -0.10674944571330
  C   4.20437747448250     -5.11289152584220     -0.21354559649287
  C   5.10944699325251     -5.54793823499210      0.65764275981972
  O   6.20261921028160     -6.30617498666090      0.25796704076407
  C   7.13163882596381     -5.50460326023127     -0.33654722398638
  O   8.16408783991213     -5.96223022051360     -0.71932609381018
  S   6.91721224491745     -3.71589043863877     -0.58231324766722
  C   5.32978255525819     -3.01030230154835     -0.18864940146984
  C   5.05016345537699     -1.64739905323093     -0.14126839109071
  N   5.86597316611067     -0.56260018213664     -0.20276547974378
  C   5.28062322233698      0.59040807974169     -0.13432946253079
  C   3.84580811639312      0.83465651597946     -0.00457434772272
  N   3.34189733405935      2.04901707134573      0.05685901288753
  H   4.06415098990279     -5.61273895498309     -1.16680053163399
  H   5.26021771412490     -5.06812625644996      1.61767251650563
  H   5.91165364369283      1.47744527764247     -0.17570111174032
  H   4.10713248907512      2.72207256424465      0.00045687684107
