21
Coordinates from ORCA-job 11350optt
  Br  1.12198506026721     -0.27527630250949     -0.06813595494502
  C   2.97911980996085     -0.27925240129346      0.07402814309153
  C   3.75770040081333     -1.43543965051198      0.08020121159063
  N   3.19274571237811     -2.64553414861657      0.01275121848365
  C   4.02172791383185     -3.69506064317742      0.02274914262219
  C   3.70387161466988     -5.07343355614321     -0.03864089795485
  C   2.38507107436752     -5.62057630076503     -0.11987261787173
  O   2.09679003570582     -6.80985226386419     -0.17544898000759
  C   4.93950100052557     -5.78521437223579     -0.00205841230136
  C   6.00104895858749     -4.90858823721782      0.08085196709056
  C   5.47244037255629     -3.58760907799600      0.09894407251827
  C   6.03466038428034     -2.32437658993525      0.16302006391261
  C   5.18530661422139     -1.22788909934502      0.15736410951508
  C   5.58393178658045      0.14726211958533      0.20460559291447
  Br  7.44320796695422      0.58306299719990      0.26732218088914
  N   4.85331621431533      1.19386171187224      0.20797036371263
  O   3.47359748804266      0.98657951338153      0.16355238560523
  H   1.58127755959107     -4.86087786204450     -0.13143512677640
  H   5.00395490810363     -6.86361893486357     -0.03533267809631
  H   7.04870313679133     -5.16825558364628      0.12304505641672
  H   7.10704198745557     -2.18091131787338      0.21551915959055
