22
Coordinates from ORCA-job 11362optt
  Br  0.96404780107168     -0.05175853632905      0.03278290012274
  C   2.83666612657691      0.06128216075191      0.02243934566955
  C   3.57244313522227     -1.09769971250493      0.01727081832102
  N   3.18649682583513     -2.38305871032082      0.01597628755935
  C   4.28697097021053     -3.25010001885510      0.01035676397407
  C   4.22968774470681     -4.65165487318149      0.00785687141097
  C   5.37479437904046     -5.45942713173945      0.00287967756867
  O   5.44510826840709     -6.68172685374217      0.00071997349935
  S   7.03013544237087     -4.62512737230117     -0.00120327092399
  C   6.72531464401452     -2.90304072137001      0.00344685254356
  C   5.43212741378783     -2.44828383605256      0.00830000764461
  N   4.95583523972122     -1.10403180011257      0.01239895038480
  C   5.68381297142963      0.06442633282016      0.01186076229706
  O   6.89481439184154      0.11136811716477      0.00868987937856
  N   4.90185506860613      1.19810432194171      0.01502078938276
  C   3.49435953594670      1.32385117812118      0.02064965214673
  N   2.89985532543298      2.46376687125084      0.02375456753788
  H   2.21921570748559     -2.65752842524102      0.01826154885916
  H   3.27669661884082     -5.16550971041205      0.00998814147461
  H   7.57914464153438     -2.24734981133108      0.00267498180749
  H   5.44105193528015      2.05002679135483      0.01422636966144
  H   3.57056581263670      3.22747174008811      0.02164812967963
