20
Coordinates from ORCA-job 11361optt
  Br  1.02020106767387     -0.23470177863736     -0.07965420535476
  C   2.90036145540721     -0.14047041300092      0.00747963250055
  C   3.65272362112978     -1.24249193833388      0.00677546931077
  N   3.14604843826372     -2.53844805496890     -0.04132779920928
  C   3.93181902083254     -3.65802048379369     -0.02560848271871
  C   3.50649949308946     -4.95960972447138     -0.04960246233400
  C   4.57845123704895     -5.91150745997846     -0.02310832906013
  O   4.54604646413229     -7.12232362401994     -0.03076098226471
  S   6.16748337355818     -5.00061477305927      0.02845923651696
  C   5.33857213150496     -3.46619969215987      0.01994371484282
  C   5.85102574747002     -2.20273552595625      0.05700076928183
  N   5.04399628855681     -1.11341017183752      0.05423841741072
  C   5.65126853881026      0.19710083911327      0.09428428033023
  O   6.88439712752422      0.25854682866236      0.12048601794238
  C   4.77390406655555      1.34231375779189      0.10968169029724
  O   5.12220006009138      2.49817779876235      0.15788246343127
  O   3.37325772432012      1.12183687344371      0.06688198730388
  H   2.14415228183174     -2.63098109103316     -0.06322449813312
  H   2.47873810686191     -5.28860594775846     -0.08066428427327
  H   6.90185375533696     -1.95485541876450      0.09083736417933
