28
Coordinates from ORCA-job 11360optt
  Br  1.33389137927857     -0.21869024382665     -1.45209513143957
  C   3.01742971451154      0.00162284409278     -0.57408861079609
  C   3.52398582874597      1.27363063764829     -0.48946758734454
  N   2.99082862036048      2.45993347669283     -1.02309011096778
  C   3.66966240131601      3.59107286854136     -0.39241065597162
  C   2.88073458083741      4.21136258053343      0.76966650364331
  C   3.68400356326289      5.33355128398462      1.38869012034849
  O   3.24885697306357      6.44735433281901      1.62143404268911
  N   4.97527519929348      4.98020599516831      1.61748035070688
  C   5.40997899106814      3.59565168370066      1.48710435098837
  C   5.01856309851597      3.00869217034007      0.11807105629419
  C   4.73730890514078      1.53445888588028      0.15912287486677
  C   5.45664437086999      0.46254739164015      0.70726586364649
  C   4.95960945583328     -0.81469763870073      0.62232705820938
  C   3.71229686433971     -1.11742224027676     -0.01103999407197
  C   3.25537122206380     -2.46600996579016     -0.03921921370613
  O   3.86791617687051     -3.43906862561382      0.45753150144234
  H   1.98077250872123      2.50443364801954     -1.04946968418846
  H   3.84435796794897      4.37402292741425     -1.13381214252689
  H   1.92420060764934      4.61508250286891      0.44241570027712
  H   2.69849078898769      3.43368336433022      1.51977940274212
  H   5.54922186698838      5.66309415638874      2.08555845716688
  H   4.96588832570856      2.97924579182669      2.27429534033500
  H   6.49037595813955      3.56275634564466      1.62009203876147
  H   5.80830575642206      3.26992228259105     -0.59810216665746
  H   6.40654258794285      0.63637961040213      1.20484466565859
  H   5.49419807769101     -1.65601288664035      1.04368495775886
  H   2.28928820842818     -2.63680317967955     -0.53956898786483
