24
Coordinates from ORCA-job 11377optt
  Br  1.54811943385791      1.56697110200977     -0.52058182037518
  C   3.28096442812701      0.94117897403955     -0.09060390260727
  C   4.39643753993762      1.78652019769424     -0.20168480073157
  N   4.40192270012417      3.08119965328253     -0.76739623405691
  C   5.71076934583229      3.66656959369748     -0.46826818819436
  C   6.65184554199408      2.44056382857171     -0.16294621921002
  N   7.51939181614934      2.85351769169110      0.98906020114616
  C   6.87033438493396      3.89673792388487      1.61074978344296
  N   7.03082488676061      4.50344716156143      2.74822641591905
  O   6.06012886418508      5.51540050096209      2.72472418365560
  C   5.37766223309321      5.45666375807590      1.56426986802242
  C   5.83530560878147      4.44573368619270      0.80835802058312
  C   5.66589391146645      1.36048768771021      0.12903040045228
  C   5.88973218649862      0.04353725013966      0.53760539221637
  N   4.73239330318397     -0.71896311295296      0.79576110852353
  C   3.42306742341110     -0.37536333063774      0.43306279522436
  O   2.52939924331667     -1.21128766140972      0.59775859697845
  H   3.61423790587200      3.64925346788093     -0.47720582928672
  H   6.06142918781623      4.25046107382577     -1.32096724928962
  H   7.31444604226415      2.20214676076282     -1.00043967604804
  H   7.77913764506364      2.08342457119835      1.59153214443351
  H   4.59819244660194      6.19238660558637      1.45067070368717
  H   6.81670492351820     -0.32263176700918      0.95514998736071
  H   4.81965899721016     -1.69395561675791      1.02813431815399
