25
Coordinates from ORCA-job 11372optt
  Br  1.17597157830642      0.29214152067332      0.99161224574245
  C   3.46207776902156      0.69245791727672      0.02563944265322
  C   4.36337135606290     -0.28464473650995      0.33148169943607
  N   4.49004040371982     -1.01990027951379      1.53875360012206
  C   5.27935164378710     -2.22019547325829      1.22681464612454
  C   6.06774071382397     -1.84503514086560     -0.08761329640139
  N   7.46741303347316     -1.48758293855563      0.32833538733231
  C   7.57206368186439     -2.05880499207369      1.59270503028912
  C   6.42020826481501     -2.48695339445136      2.16036724759546
  N   6.63801657313489     -2.89062859030875      3.45390799963567
  C   7.91498701575614     -2.70703338509503      3.64826223956630
  N   8.54784725779973     -2.18241732160820      2.53489804843134
  C   5.27943778033829     -0.69399897088732     -0.64622436483505
  C   5.33423673568466     -0.13848083727094     -1.89580744233200
  C   4.41049455347843      0.90009432321721     -2.24797778196428
  O   4.33781909967695      1.49310708158737     -3.32854345986031
  N   3.51844531601140      1.21965068013131     -1.21623163100923
  H   3.58348792680958     -1.20984430583913      1.95252128072578
  H   4.63169925485781     -3.08368899684998      1.05088783445092
  H   6.11055716105166     -2.68995863291077     -0.77803016926244
  H   8.15277890200339     -1.79568227797730     -0.34835463053318
  H   8.46428975362083     -2.94497227393123      4.54467165926711
  H   9.51560209718608     -1.92517266944789      2.46259960084407
  H   6.02724294072718     -0.46901369930018     -2.65731039835313
  H   2.83381918698840      1.92055739376913     -1.46936478766543
