26
Coordinates from ORCA-job 11371optt
  Br  1.10221510923936      0.12589521817036      0.33207260548366
  C   2.99385073316508      0.03803410059845      0.15342830630810
  C   3.76215534582471      1.11106572741760      0.53954553665720
  N   3.22286800977129      2.23088783850254      1.16480124474372
  C   3.21506443249920      3.55123191373260      0.52771745047283
  C   2.37778695005710      3.71894399077522     -0.77042285124864
  N   3.53826883492119      4.36780723481656     -1.43556328568000
  C   4.36519173746256      3.98523336231977     -0.32687627861002
  C   5.74061438303547      3.67681450951452     -0.33169766655376
  S   6.25042775385333      2.53875542455990      0.73604874022402
  O   7.55322447300041      1.99574693167189      0.43834789220354
  O   5.90194865770069      2.78961607060739      2.10416498357847
  N   5.12609818937621      1.04710565619775      0.40018804865749
  C   5.68262748026311     -0.05119160049672     -0.16801908901381
  C   4.96984716819860     -1.13388731815724     -0.54627356404634
  C   3.52870638923554     -1.19161054899882     -0.39525426979013
  N   2.76713832215321     -2.18395360148450     -0.72579678078693
  H   2.30359263191883      2.01908200073355      1.52742660866430
  H   2.93564222453937      4.25426727109652      1.32054647694707
  H   1.48514203425729      4.34512960122435     -0.71913404200703
  H   2.12726969659846      2.74302227289707     -1.19212492523369
  H   3.79878100583634      3.95129859003169     -2.32831937626562
  H   6.31909945309715      3.71033268101385     -1.24459079966559
  H   6.75706060938284      0.00250389132498     -0.27809053978961
  H   5.48147376454522     -1.98572647074736     -0.97579157363925
  H   3.34290461006729     -2.93340474732201     -1.10433285160997
