30
Coordinates from ORCA-job 11379optt
  Br  1.66414328969483     -0.58893171874821     -2.23226441034695
  C   3.26164641785363     -0.07326168168914     -0.28677854560246
  C   3.75176396407382     -1.20273393432455      0.28694718227104
  N   2.99747073844387     -2.39030668904727      0.47970155240598
  C   3.59757058751446     -3.62517383580971      0.00549081625685
  C   3.43408816556201     -3.86816750621163     -1.52425052320771
  N   4.51343823421031     -3.13335714151577     -2.16041001737611
  C   5.66734092794514     -3.31315355840782     -1.28528196706451
  C   5.14483104553788     -3.59132472517645      0.15763293403323
  C   5.58789397965611     -2.53742337968681      1.18378954495141
  C   5.10305252981493     -1.19986638732537      0.70926732080645
  C   5.89166913607992     -0.09514667698656      0.56331411347089
  C   5.37206968409003      1.12779471918850      0.00424919011068
  N   5.96610807538267      2.26572238708411     -0.17283899349000
  N   4.04373767225196      1.01945962049172     -0.39903339104328
  C   3.04586773143949     -4.81327454085112      0.75614726553490
  O   2.19070161235415     -4.80258036081522      1.59475590432270
  H   2.06154537013901     -2.26206104276369      0.10975882214803
  H   2.46588207839692     -3.52115828789296     -1.88464860481441
  H   3.54365846725991     -4.93738246159067     -1.74781102366486
  H   4.24079158754316     -2.15379753728199     -2.20310127942158
  H   6.30796922004675     -2.43088096797633     -1.31634194749634
  H   6.25312909374516     -4.17039157918142     -1.62988626452236
  H   5.49239251791921     -4.57492450770553      0.48501905173239
  H   6.67347261288418     -2.54682371617537      1.30143304763618
  H   5.13245895332580     -2.76855503860619      2.15193544550851
  H   6.93563215325539     -0.11782725361130      0.85205179264664
  H   6.92010797486723      2.20530159056758      0.16845301206926
  H   3.66567618656899      1.84610344604119     -0.84142549368143
  H   3.50788999214267     -5.77587723399189      0.44112546582689
