28
Coordinates from ORCA-job 11390optt
  Br  1.19217836869824      0.21745819469258      0.16195803647963
  C   3.10792841943232      0.07953710870685      0.10850005940217
  C   3.69084396113093     -1.16650396547642      0.14575379849548
  N   2.92773111838648     -2.35015209333018      0.23815395083234
  C   3.60317014017843     -3.50500460101007     -0.30017060270165
  C   2.92508500740291     -4.85445354118671     -0.11494924678920
  N   4.07570871594484     -5.76288386526062     -0.16708330039162
  C   5.36714396746542     -5.05071070282741     -0.09155665727189
  C   4.92569307803870     -3.69175078642025      0.42286117601666
  C   5.82496667003393     -2.49765073179297      0.20255312829977
  O   7.07172785159334     -2.64487904386370      0.16029028641070
  C   5.13296913145869     -1.25280521023613      0.10676920030522
  C   5.85721117874385     -0.02992464783224     -0.00122362114745
  C   5.22157996976242      1.19065603893053     -0.03837289435682
  C   3.82938223436420      1.28317225851127      0.02443531719187
  C   3.92594858430077     -7.08928127318833     -0.20978111610633
  O   2.85833732889252     -7.67865069187601     -0.23453900101645
  H   1.98474658638848     -2.22200379196160     -0.10369730016625
  H   3.83005169149085     -3.37519370701714     -1.37100931615956
  H   2.20505679066635     -5.11602419017434     -0.89058439426906
  H   2.42761701512498     -4.91799595451162      0.85736631527205
  H   5.83046971549505     -4.95765294714885     -1.07717841234274
  H   6.05924737025881     -5.56375005525767      0.57300353278856
  H   4.69505336880595     -3.78848508390734      1.49289524527024
  H   6.93576585284219     -0.10425139583306     -0.04082073708115
  H   5.80635545534698      2.10083687865329     -0.11185732875777
  H   3.31019413827775      2.22950468572811      0.00393245504198
  H   4.89083628947455     -7.62615688510992     -0.21964857324872
