26
Coordinates from ORCA-job 11395optt
  Br  1.11997168981890     -0.45915303554811     -1.63096087355842
  C   2.97221221697581     -0.15956167636155      0.01847860846680
  C   3.55375538782326     -1.33311666513931      0.39462175909458
  N   2.86238361326385     -2.55536681464863      0.58794361887263
  C   3.58557387598995     -3.64365706430213     -0.06484718332186
  C   3.81341467111844     -3.46929342847134     -1.61483031675107
  N   5.25987748007613     -3.49986389879851     -1.85630149635534
  C   5.81277932916326     -4.23164820359856     -0.71970108460003
  C   5.03410824169807     -3.72263276465811      0.49049574295254
  O   5.58735422408876     -2.46180043510190      0.86626358945155
  C   4.94847869199366     -1.30618135625352      0.55709003052027
  N   5.71722052207891     -0.25739567091823      0.43723194021019
  C   5.14802897463281      0.94195543124886      0.12299182532256
  O   5.74912263737198      1.99910014880128      0.01714404832034
  N   3.75594942515443      0.92120010424946     -0.10267466779984
  C   2.91174488986242     -4.91372615900700      0.21585351511262
  C   2.37062423109972     -5.96371930581404      0.41810756502684
  H   1.92659106085226     -2.46313898116966      0.19730138375072
  H   3.36923462691906     -2.53144491097125     -1.95098882002911
  H   3.33411683841090     -4.29314197050913     -2.14495039129153
  H   5.62201453524356     -2.55180221093618     -1.83795204678586
  H   6.88238688152572     -4.06185887671520     -0.61263602108539
  H   5.62719913446377     -5.30207488011308     -0.85383794528628
  H   5.08754246026914     -4.36253313012874      1.36950663056197
  H   3.35500146191228      1.80361892327702     -0.38685805378287
  H   1.88131289819282     -6.88876316841238      0.60350864298399
