28
Coordinates from ORCA-job 11399optt
  Br  1.36994295186450     -0.55548827159738     -2.05893167206239
  C   3.24665138998192     -0.00693149940960     -0.39914318048067
  C   3.71493062896243     -1.17173229182422      0.09613670742489
  N   3.02409152176809     -2.40455381466371      0.30981967747558
  C   4.08108326897437     -3.42078607328662      0.19514324372892
  C   3.81383934734261     -4.73160567418710      0.95130574913835
  N   5.06596224747810     -5.21615258862218      1.55548837222214
  C   6.26093830914016     -4.99276840111230      0.73792511710151
  C   6.57296523931739     -3.48115976435658      0.66205923415204
  C   5.27981251335434     -2.71099262291261      0.87088167446418
  C   5.09287914609682     -1.30335069763271      0.38390940478160
  C   5.96249353485337     -0.28130215441852      0.18768978491814
  C   5.46623091298279      0.96743529143469     -0.33097919073581
  O   6.10866002285702      1.96464594505850     -0.56682304440567
  O   4.09415591878397      1.01077548313321     -0.58092165091187
  C   4.38173800712336     -3.68790996637488     -1.22784220489755
  C   4.57236819096605     -3.88355848992705     -2.39497339557769
  H   2.28106890673961     -2.49957744472983     -0.38157385432846
  H   3.36596943377029     -5.46176060431586      0.26749576723420
  H   3.10025466175577     -4.51204148666088      1.74678001315624
  H   4.97772114705434     -6.19628899920881      1.78440936649928
  H   6.14712051021796     -5.38967458037002     -0.27841962449657
  H   7.08815302125876     -5.52488141516890      1.20876328688510
  H   7.00285059161836     -3.24073146341465     -0.31188495435662
  H   7.29668465177386     -3.19921230359005      1.42817087639967
  H   5.03329788566865     -2.71297319009318      1.93844577064186
  H   7.02550029495234     -0.35299838811889      0.36820310874353
  H   4.73163574334257     -4.01242453362973     -3.43813438271394
