23
Coordinates from ORCA-job 11401optt
  Br  3.71724307634924      0.54004012982961      3.47670560665392
  C   3.81905637811281     -0.02441598940113      1.68696919438423
  C   3.15260165652654      0.58640846935493      0.68211635181789
  N   2.35106384486621      1.66265843694380      0.99108580355789
  C   1.54184144213872      2.20902807832143      0.11960785144583
  C   0.65872255778746      3.34791034718734      0.56697028185204
  N   0.60609184459552      3.86224052970539      1.72843460016120
  C   -0.14215293497614      3.73607039650078     -0.60652362638458
  C   0.20915344383710      2.92882659708850     -1.62681285547604
  C   1.23885820644137      1.96900929096282     -1.24644019730428
  C   1.80592348165405      1.02596794677955     -2.09407663024759
  N   2.78749613261037      0.16055418957091     -1.79409997457395
  C   3.36420478762773     -0.00019668887588     -0.65609955996503
  O   4.44766303057251     -0.91483471841200     -0.76697281244718
  C   5.02751937096942     -1.54141499436901      0.25759023555764
  N   5.90959915923950     -2.44927459895977      0.12388554179764
  N   4.62308278425095     -1.13829450413829      1.50376006642326
  H   1.28318547154707      3.35901141511164      2.31223143754643
  H   -0.87201075361042      4.53014820469906     -0.60611754236317
  H   -0.20470103007767      2.96465289830801     -2.62804263590858
  H   1.45675156704127      0.97765622903763     -3.12108775386490
  H   6.05221757813820     -2.62750892915496     -0.86504597622861
  H   5.11758890435809     -1.53824273609038      2.28196259356592
