21
Coordinates from ORCA-job 11404optt
  Br  1.12881690063621      0.26331948788472     -0.25568989635107
  C   3.00289135876525      0.20190743692138     -0.07607228335525
  C   3.70844943061944      1.34593972754252     -0.07777355654192
  N   3.28108258250488      2.68907994076194     -0.12973538127825
  C   4.40314244835564      3.40671384892531      0.26929190003809
  C   5.48646976834779      2.59737359297087      0.29694025001171
  N   6.63508841922332      3.34796085568832      0.18330304902514
  C   6.18168848770436      4.55343565294430      0.05507711663634
  C   6.98346729394008      5.81178404373921      0.02101747692706
  C   6.85615113979562      6.60652642593441      1.24375591857290
  C   6.74175454454782      7.25183478427155      2.24525882213509
  O   4.82464496819582      4.67956968487185      0.02633562502298
  N   5.07672126400559      1.30700548405773      0.06471051453320
  N   5.80996138690551      0.12143865855870      0.30414847421932
  N   5.08774835609759     -1.00042680423396      0.26280593583890
  C   3.74293170492997     -1.07419422981429      0.08090465561520
  O   3.13319993925256     -2.14707778787303      0.05846859395419
  H   2.34822120633897      2.87005297652709      0.21440074007525
  H   6.67899205898662      6.41991060840494     -0.83433884333962
  H   8.02295942376873      5.51855363930233     -0.12452920276720
  H   6.63861731707815      7.81529197261405      3.14072009102794
