27
Coordinates from ORCA-job 11400optt
  Br  1.12001938139442      0.11348838153184      0.91861207830721
  C   2.93027614455635     -0.02628445564503      0.40886866503176
  C   3.58502518984563     -1.24306733920802      0.42588097931377
  N   3.15047665428561     -2.49272706531003      0.91166457510799
  C   3.98467816127577     -3.48841260427508      0.22498266491809
  C   3.39563404559815     -3.82152843343715     -1.15108286758155
  N   4.37996962886467     -4.45939921516135     -2.01423047682637
  C   5.46848156614526     -3.52979550022573     -2.30769258624643
  C   6.25585749503477     -3.28565780516332     -1.03456743424201
  C   5.35352683695234     -2.75666690086212      0.09211100032758
  C   6.09775378392091     -2.89167879171802      1.36300668534369
  N   6.69312286589240     -3.03065270935123      2.33443326870645
  C   4.86805193413721     -1.33428378489411     -0.08148533374859
  N   5.61080914678282     -0.35500003538398     -0.57919842325697
  O   4.92809277363065      0.89529959453906     -0.56898172462909
  C   3.61580094478212      1.09224734695430     -0.15450832418683
  N   3.12228221518817      2.26426343818829     -0.30323729877846
  H   2.15160530081414     -2.63790997669223      0.81238788745576
  H   4.08464118676141     -4.39684978118286      0.82017634855820
  H   2.55253253340453     -4.50178504316058     -1.00790051419775
  H   3.01220006456653     -2.88492561587774     -1.58246407157810
  H   3.93536173870392     -4.75747262610357     -2.87301299357232
  H   5.09990739904889     -2.56987143247833     -2.69727710460393
  H   6.12198241945003     -3.97600559653605     -3.05898034245993
  H   7.04242947192104     -2.54792685668989     -1.19980135665390
  H   6.71324149676425     -4.22464605977027     -0.71598978449204
  H   3.82623962027795      2.85924886791320     -0.73471351601623
