29
Coordinates from ORCA-job 11415optt
  Br  0.97551961350472     -0.60230826430838     -0.62991054530015
  C   2.74689604168199     -0.19823441594259     -0.08335521342827
  C   3.11079801888106      1.10762588688730      0.24281837010931
  N   2.45923681059758      2.32331950133724     -0.08151680144908
  C   3.54698746908733      3.29414930835613     -0.34022193748445
  C   3.14591561258408      4.71203636248338      0.02532269551966
  N   3.14622878151965      4.86279740185817      1.46794707939395
  C   4.28144382499177      4.41221019766990      2.11681689200953
  N   5.07982879622864      3.52112426487176      1.71252098474826
  C   4.77715347110045      2.77987136348123      0.47988114464004
  C   6.10884377428495      2.53399433499096     -0.27817156340379
  C   6.65232459802177      1.18650435217209      0.28987387635151
  C   5.40449242428857      0.44244256076357      0.76190950140331
  N   5.03985036409532     -0.84609923280512      0.28558709636378
  C   3.71483565830732     -1.25250206506542     -0.00448446295458
  N   3.42562031624347     -2.49848002011482     -0.23189436156299
  C   4.35629971017129      1.36930083123869      0.74752367761378
  H   1.82319241732515      2.21502512603016     -0.86263516659170
  H   3.81329270763335      3.28127682026151     -1.40435308328920
  H   3.86315319925165      5.40501864128877     -0.43956702242284
  H   2.14991712199226      4.93457023372635     -0.36038780575916
  H   2.77001409302878      5.72533528635700      1.82382762785761
  H   4.45947232305216      4.88413446733219      3.08418201502820
  H   6.81184348155125      3.36384602013920     -0.16974996629690
  H   5.88201838651301      2.40052838310620     -1.33878780674116
  H   7.35543456146055      1.38214798729921      1.10475323620399
  H   7.18826623260548      0.61798016634398     -0.47692889145338
  H   5.62503020947658     -1.62047677916048      0.55435150165758
  H   4.26808998051969     -3.06613872059824     -0.16535107076286
