27
Coordinates from ORCA-job 11420optt
  Br  1.07964751898278     -0.56435391753682     -0.19731230430911
  C   2.95850925590448     -0.28582881788691     -0.13914059716712
  C   3.76653765824368     -1.36714045053780      0.02747978750152
  N   3.45260637662750     -2.71112174544922      0.26419516982165
  C   4.65398448221108     -3.51060546406305      0.08054308105538
  C   4.80743821264547     -4.61022041772665      1.14212425755193
  N   4.12371697255891     -5.74085750173396      0.52534078266356
  C   4.10316972289713     -5.67765348462447     -0.84750468789908
  N   3.68572079724981     -6.54368248458930     -1.68421327764382
  C   4.68484928632825     -4.33669876180961     -1.22554641078671
  C   5.75968810297226     -2.46332427143956      0.13948869427828
  O   6.96125323786839     -2.74747972553817      0.18336841107431
  N   5.15415654569738     -1.24136803724067      0.05640747053341
  C   5.79750972287158      0.05896510510713     -0.00502284142273
  N   7.08215973733641      0.18645207756301      0.09185323225261
  C   4.89041372067289      1.13812439727135     -0.18451073742859
  C   3.51237871895571      1.00059985706591     -0.26036268029615
  H   2.60588025328224     -3.03531274521136     -0.18185686293098
  H   4.33012403175913     -4.31105385334347      2.07334787447223
  H   5.87178084776341     -4.80248016303579      1.30656218104671
  H   4.05237937853510     -6.63172348964250      0.98802557982713
  H   3.35284198840447     -7.38183561907883     -1.20739458458945
  H   4.15154666726572     -3.86637467802339     -2.04875227568632
  H   5.72795407401054     -4.48571166086113     -1.51714301958002
  H   7.52526933298902     -0.71994582031318      0.19555969852747
  H   5.35291412159231      2.11175226772891     -0.26222644474441
  H   2.86656923437428      1.85287940494958     -0.41330949612169
