26
Coordinates from ORCA-job 11424optt
  Br  2.08950327431888     -2.36495459240560     -1.66954859416124
  C   3.28269116111156     -0.94871284460142     -1.09660279191441
  C   3.14184440189657      0.31602429257034     -1.53080237913302
  N   2.02765975743056      0.67504220363811     -2.40281970554317
  C   1.13156477571291      1.35735156835459     -1.52828462126758
  C   0.53447288539904      0.77597849683670     -0.45118415401948
  N   0.47143740091459      1.54193604990266      0.69194455182954
  C   0.98930805495018      2.70790209444468      0.46565816856399
  N   1.45889857946503      3.58712939830911      1.43295544404621
  C   2.90989020997569      3.84685236369306      1.29345953252614
  C   3.89389732539605      2.66074172728786      1.44079432560523
  C   3.88288866585703      1.40894482931414      0.56410825735994
  C   3.93961066011442      0.20354362093911      1.21416178440638
  S   4.27777147449917     -1.25784703644348      0.31531016280029
  C   3.89055783295750      1.43757253989805     -0.88804105592758
  N   4.26842130346553      2.42213852331676     -1.67726525411278
  S   1.34060197710515      3.06399243640511     -1.19039106985495
  H   2.36279559127121      1.29151906891262     -3.13472964629968
  H   0.33264616955567     -0.28365873462398     -0.38607070475955
  H   1.23272951836853      3.20345143923133      2.34486701285824
  H   3.16925202173254      4.57455969199558      2.06586269791140
  H   3.05839504045096      4.34249588523145      0.33548673584488
  H   3.82913943546099      2.30962651785303      2.47497332142620
  H   4.88719121550560      3.12379344535695      1.35723026373423
  H   3.70774033025963      0.09221458357945      2.26701873211510
  H   4.67509093682497      3.17436243100377     -1.12209101403432
