22
Coordinates from ORCA-job 11423optt
  Br  1.18204894675478     -0.15230281370134     -0.07992271061050
  C   3.04894503501455      0.00240445760811     -0.07977473129366
  C   3.67948686976625      1.21413264702180     -0.07896519271739
  N   3.04150586044305      2.41326140775485     -0.07817676290459
  C   3.83395229642627      3.49071222203484     -0.07724482524930
  C   3.30444528960835      4.80947948773112     -0.07622919039818
  N   3.99752564966920      5.91349219480942     -0.07519575267027
  C   5.38666183377778      5.84505512930190     -0.07500419687986
  N   6.12294599899635      6.91819594034654     -0.07391911239060
  C   6.01948750030776      4.54352033623609     -0.07609953393977
  C   5.25621699832949      3.43092554257902     -0.07714731266693
  O   5.87532433744528      2.19281764396698     -0.07817824798678
  C   5.13378301497342      1.07616145229756     -0.07907691758109
  N   5.80087721405074     -0.02376499662381     -0.07984270228236
  C   5.13196331178541     -1.23253044912579     -0.08065907080365
  N   5.68602537212464     -2.38736837314040     -0.08164769200999
  N   3.74695218064278     -1.17536678522980     -0.08054559450357
  H   2.21940894531273      4.89198516904404     -0.07631082145459
  H   5.48806602094949      7.71635482062805     -0.07328605721745
  H   7.09885217628786      4.48550697883429     -0.07602282925612
  H   6.69219068483116     -2.25383065771610     -0.08163792838072
  H   3.26033446250264     -2.05684135465740     -0.08111281680262
