25
Coordinates from ORCA-job 11428optt
  Br  1.09775365944934     -0.14644202876001     -0.49053597559776
  C   2.98283415984531     -0.08088700632146     -0.29793887364552
  C   3.67620700111292     -1.27181443111624     -0.07867822191780
  N   3.05663306777408     -2.42889873859878      0.09353644220985
  C   3.77893577762798     -3.50354236903957      0.30790184309681
  C   3.29658520304313     -4.91689256874931      0.19928832583640
  N   4.56421954523513     -5.64800254047423      0.22500075700392
  C   5.63139329476854     -4.81828500931493     -0.11827535761462
  N   6.82743373997868     -5.16321515484366     -0.41671096874903
  N   5.16100915269854     -3.52804665948534     -0.03491351879457
  C   5.88142350187874     -2.34613723308980     -0.24571832457516
  N   7.08966795713190     -2.31181644351498     -0.61899961073098
  N   5.11542442903705     -1.18524493819748      0.00295498528391
  C   5.78880065036729      0.08678818042754      0.18385681265617
  N   7.01212367807857      0.22818872517711      0.52733968323364
  C   4.96808306362994      1.24594573841548     -0.05905414384407
  C   3.62982685428214      1.15230715568875     -0.30943784121565
  H   2.75052892133655     -5.08083213530299     -0.74512072813838
  H   2.64855344690885     -5.21091032779401      1.02559701032455
  H   4.59209775650991     -6.56281776661136     -0.19385595910901
  H   6.92055940313920     -6.17338588340927     -0.38266232217799
  H   7.44305445389772     -3.26125994013527     -0.71662643535453
  H   7.49581871137002     -0.65944220334199      0.57749111401426
  H   5.48199819023028      2.19377886711393     -0.01680547630408
  H   3.04703438066791      2.04586471127803     -0.49563321589035
