21
Coordinates from ORCA-job 11437optt
  Br  1.62936922185921     -0.72886580725862     -0.83048043699369
  C   2.92242227890531      0.27618568324188      0.14922492445261
  C   3.69252544129760      1.24231066729325     -0.53893523845441
  N   3.17487746469112      1.96409692981923     -1.66889454175083
  C   1.86052402343613      2.42262478415892     -1.48786401072024
  C   0.66845848845459      2.40466572556164     -2.14467322869129
  N   -0.38137518222206      2.31861650158121     -1.22514328608384
  C   0.21183655508655      2.25221574356382     -0.07059380156180
  O   1.53180970032488      2.52535637938256     -0.16950681956037
  N   -0.08652223268546      1.45937930255160      1.03240384698425
  C   0.94857942162181      1.34336193366313      1.79452247332887
  N   1.51479458335203      0.14717675499821      2.21709382113422
  C   2.85917602617171      0.26294974115120      1.57658225873494
  N   3.81017362057664      0.65397265047769      2.35430402546592
  S   5.29766371746819      1.02580035576964      1.63998136452203
  C   4.88173502855132      1.74895432526781      0.02784777832975
  O   5.59672943303504      2.63359726304192     -0.44795763550386
  H   3.86549251066793      2.63908902086520     -1.97789847398201
  H   0.48865901493253      2.32435155169989     -3.20256802233797
  H   1.62299261763262      2.17471670477298      1.99686523112301
  H   0.99107826684228     -0.63455621160320      1.83268977156470
