24
Coordinates from ORCA-job 11431optt
  Br  2.61212915079331      0.67927719823447      3.45448119849731
  C   3.44309267190407      0.50614378613089      1.76757140344976
  C   3.00631343971964     -0.39806271092774      0.84081766069435
  N   1.96666056478414     -1.19810720477337      1.19640039715942
  C   1.41091866609517     -2.11554036076510      0.42448643762249
  C   0.30862057217417     -2.91730379178624      0.90522215919901
  N   -0.30069269073132     -2.93474361198032      2.03360918806997
  C   -0.08099319547339     -3.84718861566268     -0.21203404453720
  N   -0.98455425160705     -4.73769559658345     -0.24208395953675
  N   0.76435755894884     -3.54572046538909     -1.25145037154021
  C   1.68567688420960     -2.54170660601095     -0.94000688323101
  N   2.55190367522781     -2.18763529062337     -1.82054530255899
  C   3.48241724135472     -1.20227386358533     -1.55120598764214
  C   3.73116991445692     -0.41577184929956     -0.46946543980934
  C   4.82414439175585      0.54035810043515     -0.58137508631633
  C   5.18126837551289      1.37492622275211      0.40272327493527
  N   4.54590518704941      1.34011054957856      1.63135982086611
  H   0.13267539292369     -2.22690866361235      2.63147312212583
  H   -1.44156975595197     -4.72698758260051      0.67043799821005
  H   0.77130388765609     -4.02085795722141     -2.13746351086234
  H   4.14630427021067     -1.03374405740814     -2.39521737392961
  H   5.37948821200954      0.56989647495861     -1.51031740650030
  H   5.98927640704948      2.08700411364164      0.31240748459695
  H   4.55118342992756      2.16953178249827      2.20117522103767
