21
Coordinates from ORCA-job 11447optt
  Br  2.95787722922722     -2.33562805700422     -0.45423977769931
  C   3.97662500333500     -0.75703499252885     -0.21618510807600
  C   3.32240379803071      0.46555927062862     -0.07521225453679
  N   1.99903812169501      0.54001525404249     -0.05165922480342
  C   1.26239319584561      1.63626011731325     -0.01638545795226
  C   -0.19194626097634      1.59501072388562      0.03211652865050
  N   -0.98919478205502      0.60841141348811      0.08682435648626
  C   -0.62711324590994      3.06346410159882     -0.00920114614861
  O   -1.76123785650191      3.46829596208199      0.02261696760473
  N   0.51054640335032      3.86190490231510     -0.08889030351322
  C   1.55760320645961      3.05545515629339     -0.08538841411513
  N   2.78838871595696      3.58859789471280     -0.15835408525471
  C   4.02106361324514      2.92732582049843     -0.07501388213884
  C   4.26259290742211      1.60891330406651      0.00905645800133
  N   5.57505829811774      1.19496384418522      0.25152485405300
  N   6.11634609735354     -0.01152185533753     -0.02736445092791
  N   5.31144880691619     -0.96741537684205     -0.25297069119618
  H   -0.42709445564767     -0.24961066065301      0.09486791654502
  H   2.79618144859600      4.59402837490119     -0.21584653018260
  H   4.86073221499438      3.60864555043594     -0.03172395645128
  H   6.28228754054529      1.90335925191818      0.35742820165543
