21
Coordinates from ORCA-job 11440optt
  Br  1.02464901501372     -0.29950375926833      0.11980253079624
  C   2.89139879221313      0.00584901296056      0.03460824159759
  C   3.40373289696455      1.24565941428274     -0.05444914075098
  N   2.61844867231872      2.38890926873077     -0.12655101512476
  C   3.23277567394944      3.62950943841498     -0.07241272402488
  C   2.74741632192060      4.89471144323087     -0.06168616748854
  N   3.84194592278343      5.77800816760365     -0.15141920342828
  C   5.05475802654236      5.07437733418653     -0.10174891120791
  O   6.15429723346321      5.60849175350766     -0.04048404776539
  C   4.66019207705095      3.66513869783345     -0.11167346839449
  N   5.45643673844410      2.59733707258491     -0.14618931424345
  C   4.87019000681792      1.39107478709596     -0.11219014630132
  C   5.61952832133385      0.20957186903472     -0.12152706544186
  Br  7.49354468510656      0.31064396644479     -0.22669422430345
  C   5.06510656974679     -1.11055381357060     -0.03670044599459
  O   5.66343083842334     -2.18189434272701     -0.02303550481320
  N   3.67391399219589     -1.12517196958703      0.04660092384539
  H   1.63557184846191      2.29985490932607      0.06580250418314
  H   1.73172834924197      5.25266134075069     -0.09004639349720
  H   3.81679311638185      6.72417212365004      0.18680061718585
  H   3.25514090162563     -2.03684671448547      0.12719295517207
