24
Coordinates from ORCA-job 11446optt
  Br  0.97448574165247     -0.05480755539347      0.27167564643291
  C   2.86883649142576     -0.06176571367152      0.11958823145710
  C   3.52867130188633     -1.28508311293594      0.08630112188661
  N   2.81822727382706     -2.46727276356142      0.08456960231769
  C   3.48893518706803     -3.55088759975616     -0.02490312177301
  C   2.93051973567358     -4.94626520328845     -0.13581150990513
  N   4.13410236973290     -5.75533802012324     -0.00428493866744
  C   5.28206321739003     -4.98174393227071     -0.09272391899609
  O   6.42240654375329     -5.39779811392209     -0.14439288593276
  N   4.88020814483826     -3.67445322097830     -0.09361423509672
  C   5.75405733432859     -2.54015709149740      0.14585415774822
  C   4.97452929411722     -1.26312874205006     -0.00828531356561
  C   5.63241479798087     -0.04461748963414     -0.12016950773885
  C   4.96470888504320      1.15945919948835     -0.11189214791702
  C   3.53420828927714      1.16523097025733      0.03507353364581
  C   2.85730353044544      2.40742222868905      0.07696490265208
  N   2.37422766987290      3.45757181204701      0.10192427266733
  H   2.43851701246468     -5.09111560407167     -1.10526926928179
  H   2.20257726471374     -5.14959096238731      0.65198071849386
  H   4.19101531430169     -6.68899672085513     -0.37201205584459
  H   6.59147250045108     -2.58796012023540     -0.55441173194233
  H   6.17750638062615     -2.64779534916631      1.15418770952367
  H   6.71552649006432     -0.04354712384221     -0.21118162502621
  H   5.48647922906514      2.09964022915927     -0.21616763513773
