21
Coordinates from ORCA-job 11442optt
  Br  1.18858848947264      0.24232634537997      0.05283225435429
  C   3.06794335759774      0.09104918392204      0.05222336407563
  C   3.82100046347787      1.26315474601032      0.05250044906235
  N   3.22360005660715      2.46313961441131      0.05298243127716
  C   3.94920493172715      3.57917471224011      0.05330423038600
  C   3.31189094563931      4.85658922431637      0.05372265741201
  N   3.91082475346525      6.00502491683805      0.05406773281571
  C   5.31544221011288      6.03824024873666      0.05404116798643
  O   5.89973439680958      7.11962623703442      0.05436691552750
  C   6.04267570296221      4.78127656785134      0.05365619518997
  C   5.37643046011584      3.59589386123038      0.05326384033946
  N   5.97841961197039      2.35738416042619      0.05281063699923
  C   5.29729465182926      1.16099527271596      0.05225449890294
  N   6.01045954538403      0.09645153708118      0.05164905708629
  S   5.34593897990431     -1.42069278526750      0.05089917659909
  C   3.58200891097819     -1.25252599557367      0.05133389395056
  N   2.84664242475393     -2.30208921551544      0.05042705246659
  H   2.22326495474927      4.84310857231617      0.05374305362353
  H   7.12468590897270      4.82990603469496      0.05366045377682
  H   6.98459202087672      2.28502860008488      0.05263802285567
  H   3.41235722259356     -3.15006183893371      0.04962291531276
