21
Coordinates from ORCA-job 11449optt
  Br  0.96313317484585     -0.30243743499349     -0.91629550798867
  C   3.00966954784723     -0.12159150002020      0.44389501705911
  C   3.73005175317456     -1.26654774583589      0.36454491181865
  N   3.04214473084227     -2.52880990179167      0.33047925589378
  C   3.88262511461499     -3.57065412785081      0.05098031526201
  C   5.20713298752329     -3.50047641832078     -0.04712708161548
  N   5.69048963368491     -4.80686509759525      0.14669221666462
  C   4.61906219349511     -5.66324782635786      0.18836901337752
  O   4.61243232868033     -6.86400290808330      0.18647552578989
  O   3.49300300107911     -4.88566485825502      0.20363936669646
  N   5.93681260284538     -2.31801676416799      0.11159994278941
  C   5.15003626846781     -1.16498812505172      0.19897682193188
  C   5.71008432568209      0.07928429136007      0.12233197826701
  Br  7.57918292210881      0.26233929086993     -0.11766583923902
  C   4.93062380740695      1.29284534266657      0.20537716554524
  N   5.29319065962938      2.50798984541820      0.14978768356987
  O   3.58075489121263      1.07884111280266      0.39266440906941
  H   2.18203892838618     -2.44973257511128     -0.21374811464715
  H   6.59690680816461     -5.15335999177399     -0.11390756556901
  H   6.76201589125721     -2.19683749150085     -0.46103698201432
  H   6.29760842905115      2.56793288359273      0.02296746733882
