23
Coordinates from ORCA-job 11443optt
  Br  1.03512628034423     -0.21567092122699      0.02754841515360
  C   2.91333541156274      0.00377780267408      0.17199541040593
  C   3.46824057600168      1.30119364387576      0.11685318994387
  N   2.66863781991448      2.44523698001779      0.30952441337740
  C   3.24660451725979      3.66585494773995      0.13039200291439
  C   2.76281248516128      4.93692343096176      0.05251790902776
  N   3.85864409022992      5.78946591179251     -0.10965814953822
  C   3.80145367934874      7.14134894776834     -0.23673426224835
  O   2.78595046804110      7.80055921989679     -0.22317071433227
  C   5.03767400986485      5.03456792726184     -0.13906907472277
  C   4.68377765002567      3.73779127112877      0.00766252988187
  O   5.48703939421061      2.66340325214797      0.06196261210680
  C   4.84818104895862      1.41631050344660     -0.00280532739183
  N   5.69568719029678      0.42342707816106     -0.10025944545577
  N   5.09329242392865     -0.81757241037976     -0.18255486430693
  C   3.74210195092336     -1.13696570589749      0.00393193804068
  N   3.31833054668284     -2.36305248490926     -0.01011631630466
  H   1.67510643649477      2.32152085990481      0.19494595995886
  H   1.76859775565734      5.34101595345135      0.09810402274668
  H   4.80255022191109      7.58476467880704     -0.35807883177030
  H   6.00034853648211      5.49884814153427     -0.25911952020398
  H   5.74498594008561     -1.56762170173888     -0.02763998390895
  H   4.09652156661356     -2.99812732641838     -0.17623191337381
