21
Coordinates from ORCA-job 11450optt
  Br  1.29070352311595      0.03702271473297     -0.19502433311903
  C   3.15870319998129     -0.10643116269704     -0.05692916432885
  C   3.78828359804188     -1.33712798932945     -0.10458945520787
  N   3.23932204110275     -2.56725266775542     -0.21953552733132
  C   4.25496696731975     -3.46281665031867     -0.19942298153134
  C   3.96704801617889     -4.84156980133374     -0.15486308037149
  N   4.71040243144965     -5.86724980495921      0.18877463903134
  C   6.03025105735752     -5.96533610074965      0.33656975702636
  O   6.63175360730226     -6.69824047123979      1.07845236908533
  S   7.14767765173213     -4.98488005422385     -0.85671515640920
  C   6.77526521217971     -3.34877434169118     -0.42819703031227
  C   5.56553495129564     -2.81700018359012     -0.16701931251764
  C   5.23527925135061     -1.40192730328556     -0.01665702292074
  C   5.94771857597787     -0.27033163529649      0.13705416538296
  N   5.28863385097670      0.92226840502107      0.19788347311792
  C   3.90023067900408      1.11018642322829      0.11091330648450
  O   3.46238261416572      2.25349478847093      0.18731440867871
  H   2.91903189768851     -5.07065228785817     -0.33247289596737
  H   7.64230871871130     -2.69513690956833     -0.43873264959999
  H   7.02560320428272     -0.23087842779136      0.22225862438291
  H   5.79689895078501      1.78263346023477      0.32793786642709
