21
Coordinates from ORCA-job 11454optt
  Br  1.22847118913370     -0.45865300983256      0.17300495098616
  C   3.13706062637090     -0.16907272673297      0.13012346454921
  C   3.60372205457601      1.12461295887300      0.08762973539748
  N   2.75152229890243      2.22335824024248      0.06833049262456
  C   3.29853686206775      3.46874333935226      0.02491057122792
  C   2.78620384538584      4.74342187167903     -0.00947076090914
  N   3.89447297220562      5.56523561812150     -0.04581993174321
  N   5.05214360730339      4.90031215380912     -0.03686704198102
  C   4.71657065667026      3.61101276793468      0.00627381171400
  N   5.58487117475565      2.57019232690780      0.02675487093133
  C   5.02423738581096      1.35650352591838      0.06386076588124
  C   5.89544041388587      0.16820414561699      0.08188490587123
  O   7.13329520232870      0.23467359223628      0.06502610089911
  C   5.20070766716566     -1.09992749551563      0.12066999545363
  N   3.89886836010045     -1.25406140766054      0.14495556356227
  C   1.45928495957043      5.21729281564686     -0.01463114748898
  C   0.32049198209490      5.60495086759231     -0.01819449555831
  H   1.75529418091885      2.07384511347077      0.08081833248582
  H   3.89004839823306      6.56741368148633     -0.07484952814731
  H   5.81589737423922     -1.99419263408667      0.13113249577431
  H   -0.68714121171971      5.94213425494055     -0.02154315153032
