24
Coordinates from ORCA-job 11456optt
  Br  2.17496160382412      1.13233037389031      3.09108637840790
  C   3.32428627806022      0.65257377263836      1.66420765848332
  C   3.00102519069773     -0.45952121458121      0.87842755076702
  N   1.99623128747296     -1.25001227753489      1.17869126899566
  C   1.63345322279518     -2.32210412582064      0.46786158540974
  C   0.72127927470108     -3.31783999519024      1.01632728116964
  N   0.16905518520628     -3.44721370935607      2.17487986767051
  N   0.51241101932298     -4.23017572984951     -0.01723876186515
  C   1.19589619449120     -3.85195171490090     -1.14519980176254
  C   1.90291403455232     -2.70565203854077     -0.87990299882275
  N   2.61234632462290     -1.99507310026463     -1.83959485345798
  C   3.45048337783330     -1.11062111484216     -1.50505964343760
  N   3.89688088365038     -0.68332697956524     -0.22763868350411
  C   5.21173704958443     -0.12853623252138     -0.27311942322341
  N   6.11473706760464     -0.58328947035666     -1.07139960531707
  C   5.44785967496896      1.00318370052707      0.57268070733176
  C   4.50937084753205      1.37335891962507      1.49018737965649
  H   0.47388239827442     -2.65796674160535      2.74445440133608
  H   -0.05018315545233     -5.05221783395214      0.09857108190444
  H   1.12965239475980     -4.40017441322925     -2.07035508063363
  H   3.96811198396982     -0.57741047369615     -2.29841296207359
  H   5.80567115858952     -1.43505999220726     -1.53221246036009
  H   6.39937045079851      1.50283977063912      0.47612251476984
  H   4.69356625213949      2.21886062069452      2.14163659855552
