17
Coordinates from ORCA-job 11465optt
  Br  0.42151771045323      0.54772556573964      0.12156124476674
  C   2.94742177939073     -0.04275298818583     -0.09255253558257
  C   3.63071012390098      1.13202512187744     -0.08667721188757
  N   3.15309140821251      2.45049163469761     -0.06643321305805
  C   4.21859537782958      3.25802434085580     -0.05726435196414
  C   5.41378681019682      2.51748321239965     -0.07969789618524
  N   6.52956614523017      3.28464804948373     -0.07473866847931
  N   6.32902857147017      4.52414531926005     -0.04983174698129
  S   4.61116471470811      4.90353120930141     -0.02885361845077
  C   5.05441161545061      1.11555199962362     -0.09461997271491
  N   5.79024749659204      0.02642163474225     -0.10717932098441
  C   5.12744817458361     -1.17300705135977     -0.10902543333716
  N   5.65251875936038     -2.34644382082991     -0.11948580100499
  N   3.70365268966280     -1.13872061116192     -0.10003120818507
  H   2.16553570576981      2.65972657194546     -0.01631084411984
  H   6.66190779748720     -2.23789320304695     -0.12535567905402
  H   3.27539511970108     -2.05395698534229     -0.10450374277740
