23
Coordinates from ORCA-job 11471optt
  Br  1.32040855764085      0.68553902745051     -0.74345637341219
  C   3.14796467385459      0.27126242947854     -0.39051696180112
  C   4.04356347282243      1.34439194558434     -0.29407514521476
  N   3.70106107794235      2.67905069138610     -0.46633926565125
  C   4.80527650422625      3.44630371731935     -0.13935571345893
  C   5.84611521276019      2.58949614188277      0.14436817679358
  O   7.03953312738058      3.24120379351221      0.34369841996517
  C   6.72295074346742      4.55876533995504      0.16229064565498
  C   5.38673053059446      4.74066235069657     -0.15756311361099
  N   5.18350240762264      6.08872722803379     -0.27132607234349
  C   6.38010264688512      6.74114244037055     -0.03022759832208
  C   7.36077923241173      5.81200975926079      0.25312725492219
  C   5.42349698093932      1.23539605081548      0.04675100028868
  C   6.05756123953495      0.01096959240348      0.26018587668924
  S   5.21911769657639     -1.49227021918579      0.00105581914553
  C   3.47528662059420     -1.09118088715918     -0.24144116907126
  N   2.64158560091742     -2.07620052270779     -0.31280320912587
  H   2.73952636819109      2.97107815419970     -0.44018534778884
  H   4.32333046441284      6.53876439431789     -0.51958207293373
  H   6.44438441894453      7.81302454379278     -0.09873576772255
  H   8.38928340534856      6.03427708214277      0.48081593465514
  H   7.08797305704738     -0.07690846278106      0.56710675161117
  H   3.11746595988461     -2.96250459076890     -0.16779206926861
