27
Coordinates from ORCA-job 11475optt
  Br  2.83951135620626      0.04001793767193      2.86585543624863
  C   3.80889523929998      0.10221012472834      1.24394900103315
  C   4.52174725591576      1.19881670815293      0.95135839447887
  N   4.84635443135679      2.33674471962361      1.71537824042045
  C   5.36948322194238      3.27259819711932      0.74138006038746
  C   6.37933455505349      4.38690923448308      0.87320986952920
  O   6.76696784098679      4.54885728376497     -0.50773272050933
  C   6.38676812058907      3.39087584578779     -1.29792583803996
  C   6.12778833111422      2.35589258717614     -0.21450870643692
  C   7.44287510426609      1.67499192045561      0.16529216428008
  C   7.28286734974397      0.27296541918209     -0.49318959230887
  O   8.24154099933972     -0.46678409383908     -0.74509943355856
  C   5.87965530728237      0.02597791660244     -0.56620667199874
  C   5.11890805348129     -1.12932564773545     -0.42325706005467
  C   3.92928353128494     -1.11485965792463      0.39709732758677
  N   3.09120360136195     -2.09116926963880      0.58201056831279
  N   5.18091167807462      1.25498772032224     -0.29484943869103
  H   4.11748147352554      2.64736769651462      2.34307098586351
  H   4.53913763115536      3.69150951341013      0.15458109238768
  H   7.23997548325050      4.10119411565242      1.48553340270381
  H   5.98071034529767      5.34063632808876      1.21955961813862
  H   7.21957792795845      3.14538066310557     -1.95471950491789
  H   5.49539959431651      3.61493729283036     -1.88883427230181
  H   7.53417137387174      1.51859229390797      1.24647435018515
  H   8.32778477686881      2.20500909196441     -0.18653223670348
  H   5.53838488784827     -2.09096087969902     -0.68948692845043
  H   3.34728052860737     -2.85937306170778     -0.03640810758447
