28
Coordinates from ORCA-job 11489optt
  Br  1.26597831890104      1.26221929523253     -0.02421668436886
  C   3.13085662115846      0.69488681846076      0.04341345315306
  C   3.40137852067161     -0.59637613315886     -0.29180244894134
  N   2.50420607543693     -1.63038920844462     -0.61464197689055
  C   2.26132114940333     -2.68001524672599      0.40096518254430
  C   3.38029850821304     -2.80016602320938      1.43240178217564
  O   4.51496917829519     -3.51353394748761      0.94691246736702
  C   4.70258733392572     -3.52092514407593     -0.45145667221723
  C   5.14858015116545     -2.13983280664507     -1.03996970671858
  N   4.74956052877060     -1.00494805532611     -0.25964116834613
  C   5.69639098845370     -0.20160530354486      0.44075227846870
  N   6.88347746582457     -0.62216895247666      0.77668479881530
  C   5.24693908629637      1.11949697763675      0.70841692499843
  N   4.00744483868457      1.59877304620383      0.43511472123308
  C   3.47591104751085     -4.07738462467221     -1.16124672677180
  O   3.55169468167880     -4.53658979683080     -2.27476177979436
  C   2.19004393209759     -4.00107708854962     -0.36417841736089
  H   1.63373449099541     -1.25081439590030     -0.95959095002994
  H   1.33718366349633     -2.47447642936794      0.95144440817482
  H   2.99913920468916     -3.39382453866306      2.26664795471076
  H   3.67577586010586     -1.81973230213600      1.81028636673171
  H   5.50440515515329     -4.23843764693230     -0.63568948736957
  H   4.75247412037971     -2.07021930543087     -2.05753317687150
  H   6.23368262094381     -2.12011694417610     -1.10207836339890
  H   6.98802677375749     -1.61606791930331      0.60222704853646
  H   5.95712030142200      1.79089008688030      1.17120237806104
  H   2.13514328040726     -4.85429265918946      0.31953088650392
  H   1.34867610216167     -4.04327175216704     -1.05519309239459
