26
Coordinates from ORCA-job 11482optt
  Br  1.02888112115303      0.17869346638315      0.18776663920332
  C   2.91103716217444      0.08081696654581      0.06208924647809
  C   3.57754097541877     -1.16766848106607      0.02868554715914
  N   2.84578265763891     -2.37245973995514      0.14515650136399
  C   3.58040420871628     -3.49366728621838     -0.36839558250413
  C   3.05303763772412     -4.88474298255960     -0.08189489463737
  O   4.20248040453130     -5.72440217189019     -0.16170549883690
  C   5.40463388399358     -4.93642008190414     -0.12683233190178
  C   4.92957217911559     -3.56352120660090      0.32715912069821
  N   5.70361861553449     -2.39512563402682     -0.02422621042604
  C   7.05675707337877     -2.43231040364892     -0.01008737413902
  O   7.71063351077862     -3.44203015578296      0.21475913665432
  C   4.96759227005420     -1.16045043817351     -0.07250226829132
  N   5.71659737301121     -0.05970226021923     -0.14533149231162
  N   4.99258343242014      1.10150429443230     -0.23735171877921
  C   3.62694435915176      1.29486858463959     -0.07595424474797
  O   3.18176418309273      2.44614882956130     -0.08482660017381
  H   1.91203170943248     -2.26978710063824     -0.23300683662018
  H   3.78176816629137     -3.39741451214102     -1.44749478769880
  H   2.31642686237688     -5.23168648009949     -0.80854644881366
  H   2.61410141485222     -4.92640121149633      0.92090125674735
  H   5.85242594642060     -4.88451114558035     -1.12270859738488
  H   6.11168088356311     -5.40016443347351      0.55304057470922
  H   4.74948820963074     -3.57696330788646      1.40953061325708
  H   7.50662505773340     -1.46022232095631     -0.22520903582911
  H   5.54259070181117      1.94361921275548     -0.23901471317496
