29
Coordinates from ORCA-job 11483optt
  Br  2.10076058067761     -1.75470327169528     -0.82813689186325
  C   3.38105506583256     -0.34298642721645     -0.46837546970290
  C   3.11929800174163      0.93589742896666     -0.81624712080848
  N   1.97893996690605      1.29836682303479     -1.59400373519853
  C   0.82091107713894      1.84579835167494     -0.86364839056498
  C   0.41385985177884      1.05062053258969      0.39043607759285
  O   -0.07482787620272      2.02714714178952      1.31549136255029
  C   0.76966723475755      3.13157137073851      1.19674456378589
  C   0.96275205991840      3.29135055775324     -0.31143406794727
  O   1.95373714581294      2.81749644698256      1.89644679943733
  C   2.99532272327452      3.76741352405179      1.85815334103082
  C   4.33242927640593      3.03354215471994      1.97137384408641
  C   4.39709696294942      1.82568056323560      1.05694899437063
  N   4.65943365437542      0.69132132795017      1.64794850102773
  S   4.67956920983528     -0.67708885108510      0.63487117900672
  C   3.99430092756545      2.00278431623364     -0.32454505705802
  N   4.10122557694530      3.11967584570034     -1.04022525457926
  H   2.29824081999726      2.02537789166628     -2.22955897208638
  H   -0.00451236898069      1.82704567228087     -1.57728002138474
  H   1.27153875567342      0.53620515279262      0.82396589614341
  H   -0.38498607366643      0.33521086010038      0.21058540094218
  H   0.27278319974204      3.98469185872690      1.67412256880915
  H   1.91611276422849      3.72393134344894     -0.60551825563351
  H   0.15670514001060      3.92060132279572     -0.69283051949948
  H   2.88279334728672      4.47803417078879      2.68813898040000
  H   2.96866820504262      4.33251467230356      0.92482126162138
  H   4.48083051487090      2.67196812852291      2.98841003524073
  H   5.13539252294935      3.74544026297730      1.75093191195527
  H   4.70690173313254      3.77809082817111     -0.55458696167400
