27
Coordinates from ORCA-job 11486optt
  Br  0.71569981714050      0.70022450246884     -0.71409299672457
  C   2.56764091146978      0.42250884625797     -0.32402143122329
  C   3.03954409154451     -0.85791776447465     -0.17783037598878
  N   2.22890223739144     -2.02023766395093     -0.37859057090778
  C   2.42730822040643     -3.16059002737112      0.56369828080442
  C   3.03000314912774     -4.47884944169787     -0.11358360453254
  O   4.37811868191505     -4.83178273580916      0.27862107174921
  C   5.43924409691749     -3.81679414693063      0.30078770595151
  C   4.62045807405836     -2.55245112885487      0.24246740419662
  C   3.62427822231444     -2.79329945254113      1.36032044794123
  O   3.83351615099012     -2.80641613710509      2.55465727731966
  C   4.41704371644830     -1.06482496658414      0.19091843566855
  C   5.20910614580697      0.05309811147173      0.52979476616554
  C   4.71501086397408      1.32307513198369      0.37579427885417
  C   3.40075831113710      1.57890936881061     -0.10318445203910
  C   2.96607624101304      2.89386800654618     -0.31648670336459
  C   2.61614377302690      4.04468449154165     -0.48716960461344
  H   1.25702808319122     -1.77424014216174     -0.49142045603525
  H   1.51425860309197     -3.37141703378458      1.12049999540342
  H   2.94760292535836     -4.37525607120760     -1.20030726199643
  H   2.45071141929847     -5.34499611747857      0.20364005647490
  H   6.09937339695895     -3.97199279268235     -0.55707042706230
  H   5.98143566789182     -3.97914542298933      1.23164977232540
  H   4.12773511602004     -2.78862097694162     -0.69687960702128
  H   6.21906807082522     -0.09788631593080      0.88954010435975
  H   5.33738334867208      2.17794468949056      0.61042033857881
  H   2.29455066400959      5.04640518992496     -0.62817244428383
