27
Coordinates from ORCA-job 11485optt
  Br  1.23414883255291      0.67635205087430      0.50444375388014
  C   3.11926964321790      0.45855501085102      0.26034447906233
  C   3.57579743917682     -0.73676558245728     -0.36607881471907
  N   2.60833356496937     -1.68879174883833     -0.79360760251867
  C   2.18483404813217     -2.71666472018483      0.16860404345844
  C   3.11635939035286     -2.84988094736432      1.36857428467033
  O   4.31748404174307     -3.56807770497885      1.08214858804364
  C   4.69389608092024     -3.70783372831904     -0.26855939276065
  C   5.35131952003139     -2.45723269544673     -0.92161920792273
  C   4.93643323931847     -1.09684845860228     -0.39853157485099
  C   5.93700051154401     -0.26222523632754      0.03153623597748
  S   5.69553225627887      1.36996242713340      0.57863171310073
  C   3.87825171167054      1.52418086271499      0.76244423570410
  O   3.51324605600048      2.56746428650192      1.29288754356869
  C   3.55402588693844     -4.27123548711180     -1.11035578395618
  O   3.77183070004041     -4.82058784521989     -2.16234859540237
  C   2.16214990613765     -4.05781099093859     -0.55678209263379
  H   2.82304308169681     -2.07248161696280     -1.70276913483168
  H   1.19343685719932     -2.46307057990980      0.55776617644658
  H   2.59738277084733     -3.42743364476266      2.13852161141429
  H   3.36261206349165     -1.86783367549283      1.77453125165886
  H   5.44825015016804     -4.49781804804583     -0.26811667446038
  H   5.18143901739117     -2.53481533282149     -2.00101400569278
  H   6.42820408528964     -2.54180967457752     -0.77786131563945
  H   6.96990002945198     -0.58347914201991      0.03184696438835
  H   1.92066065247639     -4.87235408868335      0.13208064538290
  H   1.45015846296203     -4.07746368900993     -1.38271733136810
