25
Coordinates from ORCA-job 11488optt
  Br  1.08473627917078      0.13871258604007     -0.01908721742097
  C   2.97431609240179      0.16700361107214      0.09107197762904
  C   3.62561190106434      1.41375060223066      0.30017603696199
  N   2.80869110281533      2.46852716006760      0.43338016310017
  C   3.18491460642181      3.67372069255911      0.85263550744411
  C   2.90492357429552      4.93503802902587      0.02543448215723
  O   4.21508832972450      5.23839738457462     -0.58346844200325
  C   4.89453196040587      4.04352290640580     -0.28985223642748
  C   6.34406589944160      3.72540103934870     -0.33330156635062
  C   6.35398459803396      2.30831632226882      0.30592550057659
  O   7.41475414888446      1.94715597614099      0.76955699079317
  C   5.16037162296852      1.32968792104282      0.28958474252366
  C   5.68177240029082      0.07605898413625      0.20429838380543
  N   4.97171658867357     -1.06167167512460      0.10325935577269
  C   3.57382325780420     -1.11561717853256     -0.00866663705030
  N   2.95699510389466     -2.24349961694533     -0.17425133467399
  O   4.56225021610676      3.80175051779858      1.06094473828502
  H   2.63472199514990      5.80505910373110      0.62118748046731
  H   2.16380385157462      4.74688622142198     -0.75204759082343
  H   4.43433092261359      3.27856859399873     -0.92564567091138
  H   6.96917571067172      4.36610582158935      0.28577056384844
  H   6.75304598719328      3.65871210903300     -1.34225341930632
  H   6.75363158853843     -0.05740137652179      0.21739929652442
  H   5.46489768507502     -1.93431309898215      0.01870340416782
  H   3.62784457678484     -3.00887263637979     -0.20075450908935
