27
Coordinates from ORCA-job 11493optt
  Br  1.29379421920746     -0.25683878513238     -1.62744489231758
  C   2.74093252034907      0.13713369354170     -0.48170942901421
  C   3.21023060130602      1.39178973182915     -0.40614281909457
  N   2.84537548026370      2.52944476877115     -1.11698364290658
  C   3.53009739879951      3.68976972008496     -0.60482108316603
  C   3.04567441549657      4.42708661154628      0.63563174938099
  O   2.12181633269723      5.28958076649504      1.30748163883350
  C   2.88084462890816      5.30769044159251      2.54806115112951
  C   4.20885271631881      4.37556947397727      2.74309432763958
  O   4.56502786428951      4.31121629630969      3.88519337795841
  C   5.15724550335989      3.68638524108808      1.64502539097285
  C   4.73884636852576      3.03196885212588      0.25130330499495
  N   4.21618730982340      1.71411349407665      0.47192911279801
  N   5.08405718956083      0.76015115505320      1.01137919155368
  C   4.55007705986327     -0.48546706918523      0.99197086406156
  C   3.38168491027558     -0.93034293062928      0.33090707400777
  O   2.92760966323977     -2.09743938189265      0.35473174150257
  H   1.87598224690069      2.59973007299838     -1.38703476744902
  H   3.88597583514769      4.33746470117626     -1.40646248170386
  H   3.94157273775156      5.03277114436298      0.72437954594853
  H   2.99342933444239      3.55726262451411      1.28631939895343
  H   3.24491740742386      6.32493977412304      2.71724851589158
  H   2.22608260868086      5.01792356563075      3.36860998766809
  H   5.66012533947378      2.88265144917558      2.18624755387937
  H   5.91096850607852      4.45765231165823      1.44674106156624
  H   5.65805809814869      2.99348757757004     -0.35140812060395
  H   5.13953370366737     -1.23769530086143      1.50275224751516
