23
Coordinates from ORCA-job 11492optt
  Br  1.04083487055359      0.25956939239325      0.37535167562818
  C   2.88327258950217      0.13348600357222     -0.26209326429060
  C   3.68142741699440      1.26180068747193     -0.23248696521870
  N   3.06440815368537      2.54321176326912     -0.30437653220390
  C   3.81379928805031      3.66041131396100     -0.05416338496681
  C   3.47342326221083      4.94787144068019      0.25023270364197
  O   4.58322340301721      5.71637951785219      0.35773313555941
  C   5.65120947937444      4.90197500996449      0.12296196156675
  C   6.95421687064988      5.52096102986502      0.18286666612830
  O   7.99809266693015      4.95185307822430     -0.04213013601457
  C   5.23414911639950      3.62668467409788     -0.13290625241893
  C   5.95954136852774      2.36472168333049     -0.43848581262212
  C   5.08448382008352      1.15199173812646     -0.17540970720338
  N   5.78325739110346      0.03945892264346      0.08049270811701
  C   5.23641171544884     -1.18038458142204      0.22076502858748
  N   5.81563619982429     -2.25115400432192      0.63076502891053
  S   3.53069440961896     -1.46869363737140     -0.32524916197342
  H   2.08817114063921      2.55536552774665     -0.05487559091472
  H   2.53040671859422      5.44062393976212      0.40811125235094
  H   6.93225810961028      6.59370581536495      0.45648388443296
  H   6.86783654620035      2.27923933492349      0.15740917564719
  H   6.28795430127736      2.36672835780857     -1.48628380048697
  H   6.78729116170382     -2.00980700794252      0.82928738774338
