25
Coordinates from ORCA-job 11496optt
  Br  0.77376492983569      0.20184279055008     -0.88117742801508
  C   3.03764761354588      0.07722150815326      0.27857206257174
  C   3.56391869797906     -1.17630521280221      0.31589682971094
  N   2.71169332279037     -2.33382794650693      0.36298886342948
  C   3.40845759325924     -3.43781286687471     -0.23094370680563
  C   2.87736486806021     -4.84263630180240     -0.01269508048920
  O   4.05422537168315     -5.67302488777960     -0.12464012052303
  C   5.18590262124370     -4.93621494392950      0.09183141127868
  N   6.35750162818785     -5.36801568354876     -0.01159155647549
  C   4.73329688047214     -3.55973794345118      0.49458412099892
  O   5.60574975153212     -2.50701839489081      0.20762470659679
  C   4.98194857107852     -1.28656396097054      0.22925093088244
  C   5.76824453159190     -0.16514171075306      0.13113620138089
  Br  7.63956638673541     -0.34577709547112     -0.00334430599178
  C   5.21628888904740      1.16733154428753      0.10643048864310
  N   5.80200755239633      2.31190109380723      0.03182004133488
  N   3.82279557397916      1.15658491752450      0.18340406156534
  H   1.84070167990896     -2.08654185135946     -0.10472665411969
  H   3.62688730129219     -3.29557140738719     -1.30195432392759
  H   2.16405858970277     -5.18161836830768     -0.76003086332325
  H   2.44755887596063     -4.94357751686735      0.98657346671296
  H   6.34972890764197     -6.34508007584073     -0.30323967860017
  H   4.51576591268208     -3.57999208601017      1.57239268893171
  H   6.80710658620585      2.18743170338060     -0.01669433046051
  H   3.39581736318721      2.07214469685028      0.13653217469355
