21
Coordinates from ORCA-job 11504optt
  Br  1.04006357869908     -0.00575891981804     -0.01115195471725
  C   2.92303845619542      0.05890236079329     -0.07433010002353
  C   3.59440874504469      1.23453431199546      0.19877353771080
  N   3.14733598931104      2.43809711881895      0.57845981069502
  C   4.22218826684384      3.33668020003308      0.85761439699337
  C   5.39014835122288      2.50611103377139      0.69515563490180
  O   6.57665590231310      3.00444501581927      0.16306927143402
  C   6.69661403333792      4.30453314456933     -0.07554212820783
  N   5.80809063584405      5.21190741355652     -0.12730090347756
  S   4.19815137846620      4.81832707324864     -0.07931609930518
  O   3.52070265451570      5.86904459970451      0.62833556101176
  O   3.78481202205980      4.58856270377973     -1.44607008083807
  N   4.95445889220297      1.24941869531883      0.17221716988536
  C   5.72996488895502      0.06997683733909     -0.02117593676813
  N   6.99762864213546      0.04700712762590      0.12369544006299
  N   5.02455059480229     -1.06218971581573     -0.38009539988138
  C   3.72164615627919     -1.04725424968515     -0.38518869204904
  H   2.17603037121824      2.61856493207594      0.76296013167084
  H   7.74200013173006      4.56602937875504     -0.21542526587223
  H   7.34856982250587      0.95835066402127      0.39488282024642
  H   3.22394048631656     -1.97928972590764     -0.64556721347218
