28
Coordinates from ORCA-job 11503optt
  Br  0.78305248844404      0.13117950460297     -0.72539117234264
  C   3.13960367869038     -0.00236051007394      0.28016117197848
  C   3.70492518282667     -1.24551066303031      0.21785278586183
  N   2.88041120808927     -2.40599302462069      0.28726339361503
  C   3.45968976000807     -3.57216438138836     -0.32534572985552
  C   2.61897448686658     -4.79467311572119     -0.03799266011841
  O   3.22088264282093     -5.97359800729851     -0.57661622207100
  C   4.54732623368705     -6.18575295981319     -0.39705380109911
  N   5.06283040906654     -7.34082204468511     -0.52691110629476
  N   5.32363262891688     -5.08805870237354     -0.14433578132569
  C   4.82421072879172     -3.80147631625245      0.30214806334682
  C   5.76767376853203     -2.67521354851273     -0.08682228170141
  C   5.10960649917777     -1.32176172122872      0.08811087165123
  C   5.87772393742285     -0.18116004496087      0.06220131440698
  C   5.30374344188384      1.12707932356128      0.12877809401934
  O   5.89328058368912      2.20945299140485      0.10833039457135
  N   3.90687488369073      1.09364526255884      0.22257538429601
  H   1.96083021438487     -2.16698845133958     -0.07849814085183
  H   3.59557941418340     -3.47880294767290     -1.41573513041176
  H   1.63605430620105     -4.72644310392607     -0.50175530474583
  H   2.49269380287745     -4.90383575208859      1.04296981966073
  H   4.33412198060043     -8.01048572121005     -0.75170569934862
  H   6.27901402288962     -5.32861310798959      0.06641356647969
  H   4.67705790056079     -3.78626411685703      1.39032689420408
  H   6.04331074593749     -2.80681329040850     -1.13761268816531
  H   6.69092364912947     -2.72172204981892      0.49696645166094
  H   6.95346729421907     -0.23858485637686     -0.03937047822942
  H   3.45950410641172      2.00174135551989      0.23704799080881
