27
Coordinates from ORCA-job 11506optt
  Br  0.18425405351978      0.27062255654932     -0.07108575331511
  C   2.68463549615600     -0.17466334085485     -0.42586468659187
  C   2.96814270534582     -1.47250264032374     -0.73875524685435
  N   2.04478809316459     -2.21683653092946     -1.51831720841545
  C   2.35638246985818     -3.57144175569230     -1.87057988370169
  C   3.71367491859710     -3.64705389553733     -2.57597441756364
  O   4.77479340466427     -3.89666167773263     -1.65879149822945
  C   4.49293695140602     -3.49019465837346     -0.35159454763297
  O   3.46033200899916     -4.28244873215657      0.20802920280272
  C   2.38321195216466     -4.55497927141651     -0.67493006283494
  C   2.43647330139261     -5.94898875184387     -1.14786370446639
  C   2.44503511689005     -7.07261803638383     -1.56479963135486
  C   4.16600579929792     -2.01314830656740     -0.20558827121189
  C   5.02551216901089     -1.24194504235490      0.52791084213770
  C   4.74615815590360      0.13516049679874      0.83639335046469
  N   5.45467436924775      0.98938256464060      1.50486768339322
  N   3.51635131718180      0.55126211822096      0.33803244592535
  H   1.09009402558198     -2.04144247900544     -1.22058488382714
  H   1.58401319851748     -3.92294791222432     -2.55732719585304
  H   3.88735435811383     -2.70910093333732     -3.10849142790280
  H   3.72972634066278     -4.47939707780196     -3.27908074229168
  H   5.38200048210788     -3.72064375293093      0.23258183939306
  H   1.46179118495817     -4.42149833358966     -0.10310611543993
  H   2.46647298040195     -8.07360385275583     -1.92164548705922
  H   5.93068139216449     -1.67262344715851      0.93788574660161
  H   6.31776577447484      0.54959465228062      1.80805406412098
  H   3.24573798021622      1.49371804048073      0.58662558970713
