24
Coordinates from ORCA-job 11510optt
  Br  1.14155257685495      0.07976998003223     -0.21491460847294
  C   3.04034295610780      0.01628944496649     -0.04668147149803
  C   3.67519916382128     -1.25949762588585     -0.08084110808449
  N   2.96474809499673     -2.41110009132574     -0.16680846235357
  C   3.62049379654916     -3.52531830935376     -0.13869597769339
  C   3.10902128502974     -4.93036970690863     -0.11067978670055
  O   4.30016665393210     -5.73235377939462     -0.08404178545935
  C   5.41035949447529     -4.93917129594161     -0.03553083528280
  O   6.53179195491587     -5.38035768857448     -0.02716554329989
  N   5.01374457968627     -3.64550681725280     -0.01005935127453
  C   5.89934392997385     -2.50867478438258     -0.15429144267522
  C   5.11294349308103     -1.22381557713520      0.00017920881503
  C   5.79156620198064     -0.04742849394809      0.16118236962096
  C   5.13036342547769      1.20052317531078      0.22900078394930
  C   3.71541951685610      1.19235770678866      0.10122164575135
  C   5.84190376800374      2.40494957224325      0.41014924030045
  C   6.45035270944262      3.43943585435683      0.56666227425181
  H   2.51883024091623     -5.20145733369452     -0.99050329324061
  H   2.51923092083520     -5.15545695160122      0.78523699803368
  H   6.38035075797880     -2.55569240620717     -1.13808741608794
  H   6.69029601573673     -2.58077363893482      0.59448076546884
  H   6.87511737125767     -0.06445903104254      0.22884805738031
  H   3.17194713620637      2.12692891559322      0.12623052702776
  H   6.98291395588410      4.34717888229218      0.70610921152382
