20
Coordinates from ORCA-job 11517optt
  Br  1.31737967918249      0.00670312914314      1.00269835120206
  C   3.13862194019109      0.20933822184722      0.61756176034203
  C   3.66656413051906      1.31666450704947     -0.08181675218595
  N   5.12187548059216      1.37148876790978     -0.13823693881784
  C   5.70359217307672      0.11357520103447     -0.24221462915513
  C   6.90373396448015     -0.37352285336217     -0.63324106057660
  O   6.89085872603973     -1.71643524620223     -0.58203095682335
  N   5.65327056399655     -2.15677971652247     -0.15275339414163
  C   4.96468242666569     -1.07272719831191      0.04859917321537
  O   3.71586500846969     -1.08350244240715      0.49304316547959
  C   5.89473222584223      2.47658098482620      0.12732989860460
  N   7.12854092995341      2.48291584905529      0.45565289356027
  C   5.25182561508416      3.83187955485542     -0.09253553702947
  N   5.81513649022361      4.89801591725310      0.28679283277011
  S   3.78294758735330      3.91380719286726     -1.04130246188969
  C   2.90425781149251      2.33841956188458     -0.67084807465401
  O   1.70548492314312      2.37607946610252     -0.92143206188917
  H   7.82076578815344      0.08110375741167     -0.96597228062792
  H   7.47815422729279      1.54723175793824      0.63927368994326
  H   6.70171030824799      4.64116358762756      0.73043238267346
