21
Coordinates from ORCA-job 11519optt
  Br  1.10094167635174      0.17652433340486     -0.01492934606724
  C   2.98352744039436      0.14535202590294     -0.01236176170103
  C   3.68456978390515      1.35754870229806     -0.01064846043632
  N   3.07822604503350      2.55470111666169     -0.01001772117377
  C   3.88205868103147      3.60911034879929     -0.00836494182927
  C   3.51086056178261      5.02507388331001     -0.00720119733447
  O   2.42173231478191      5.59233396711149     -0.00718048709804
  N   4.74159859808193      5.67965318361582     -0.00577561668241
  C   5.82405996174074      4.78949375293273     -0.00591815497017
  C   5.31986105775301      3.52833474155526     -0.00746208096260
  N   5.95576847140259      2.29716899937998     -0.00810441585636
  C   5.15322792538482      1.28940040394413     -0.00955954518394
  N   5.72644700481709      0.02539289585178     -0.01027175072312
  C   5.02421681149233     -1.14435460936905     -0.01128468002235
  C   3.65967598689158     -1.11089555793394     -0.01233330105808
  C   2.98077206126266     -2.36706518891023     -0.01314821484200
  N   2.48694330681233     -3.40568293473200     -0.01333909496190
  H   4.80279329425795      6.68089050241463     -0.00453934908895
  H   6.84379249261325      5.13505972514144     -0.00491803882903
  H   6.73405056995060      0.02159909710625     -0.00946820964436
  H   5.58787595425834     -2.06363938848518     -0.01117363153456
