21
Coordinates from ORCA-job 11521opt
  Br  1.17519055445358      0.29611231549949     -0.61155822480262
  C   3.04232425301609      0.14669747668086     -0.37223093842279
  C   3.77171425510804      1.29633643186318     -0.09720340953502
  N   3.36403735378241      2.55638459944565      0.03053164512769
  C   4.46105325791213      3.39637089941795      0.29690115377718
  C   5.64093018734740      2.62508823641030      0.34954764803485
  O   6.80284819837331      2.90451170780722      0.54560691828205
  N   5.00637802498490      5.61260350704818      0.67957061838057
  N   4.24022865184808      4.73161351643908      0.45603490308496
  N   5.12972618283535      1.25511692559332      0.08916904326040
  C   5.87339561649661      0.05158505591248      0.02843338117305
  O   7.07886279083256      0.02280907519604      0.21027539445738
  C   5.08377305196300     -1.11967052758160     -0.26489558229966
  C   5.90355692735503     -2.38241913182709     -0.32793172500745
  C   5.12128408021743     -3.57255069854728     -0.64823902427446
  N   4.49938991971310     -4.50236274103984     -0.90238456055626
  C   3.72358156349183     -1.05884309153881     -0.45567890628087
  H   2.41242573275817      2.85842282421093     -0.08489391789976
  H   6.41705155514071     -2.54941579518739      0.62326955045922
  H   6.69891230050497     -2.27845837028594     -1.07144209521852
  H   3.16733554186494     -1.96393221551681     -0.67488187173992
