19
Coordinates from ORCA-job 11529optt
  Br  1.17827337339634      0.80668352659806      0.66387925516522
  C   2.77037100954131      0.10238093447998     -0.05910957753974
  C   3.95900962838130      0.69230604050547      0.11072981182521
  N   4.29987562769719      1.86090315215216      0.78836918634161
  C   5.60982200451961      2.14031144146737      0.45816544934625
  C   6.14625786147536      1.08727556529606     -0.32615201965764
  S   7.79717160402681      1.45808097833969     -0.66502525945207
  C   7.59513994070315      2.96149182940603      0.23170956947364
  C   8.66623653228342      3.88875130802886      0.36530032597501
  O   9.78916141490680      3.74741062949330     -0.11320591419441
  N   6.36998069580347      3.15763991212932      0.76842276222180
  C   5.15454720906497      0.14309904595159     -0.54452873116240
  N   5.14846691035986     -1.00770807077841     -1.23724778237341
  S   3.98579492036013     -2.00600510056306     -0.89908095502688
  O   4.08026443069939     -2.58441742515367      0.40601930501755
  O   3.66753150624073     -2.84987143509062     -1.99844023136530
  O   2.61694221944331     -1.01198647822536     -0.79185413068686
  H   3.62670959468929      2.56096543794491      1.05036593717639
  H   8.39744351640744      4.78168870801830      0.95668299891603
