21
Coordinates from ORCA-job 11525optt
  Br  1.28643367667332      0.90171316994514     -0.12798336079800
  C   3.11571190974044      0.38845013902491     -0.04115933167819
  C   4.06186099435035      1.40549071982593      0.01548811219217
  N   3.78970883946486      2.75154440156722      0.00391639436216
  C   4.97481703533339      3.45626560401139      0.06571226736338
  C   6.01954034466714      2.53128389451728      0.12000031215852
  S   7.59416727459382      3.27795521084534      0.20551460851528
  C   6.84064322005014      4.84586667460174      0.16944581661413
  C   5.45899913142441      4.76600301184173      0.09512907755508
  O   4.92514203597887      5.99330082271675      0.06938250514292
  N   5.97210129997958      6.92623423641143      0.13091232001448
  C   7.08168235659237      6.22794591318685      0.18849783342442
  C   5.48410920604761      1.22097816387715      0.09162269787421
  C   6.07158651743798     -0.03973211263226      0.12147755932922
  S   5.12544555200443     -1.49413495286272      0.05744633221184
  C   3.39897729493940     -1.00168947839887     -0.05015639835210
  N   2.51168292285469     -1.93228147304745     -0.12591595449713
  H   2.85847061909445      3.12448721801562     -0.05199036053496
  H   8.01595712479303      6.76566478494549      0.24188775284321
  H   7.13809596517507     -0.19284932233788      0.18946293748009
  H   2.94386667880462     -2.85249662605480     -0.11569112122074
