23
Coordinates from ORCA-job 11528optt
  Br  1.19908633675066     -0.23614736030577      0.33777203443943
  C   3.08081943117175     -0.12360594720235      0.15963158157145
  C   3.72780104141600      1.13944206010100      0.25526599026764
  N   2.98500450391653      2.30825126340973      0.42879138491968
  C   3.60735623465816      3.50929512087536      0.18147347234632
  C   4.97369419931161      3.57206079583754      0.10142244205447
  S   5.51940435787389      5.17124773794236     -0.26362717990479
  C   3.89751333207151      5.75391624648214     -0.29631389522173
  C   2.99259832174693      4.76896568022734     -0.04496336487664
  N   5.79965267547278      2.45242917599061      0.30631203945156
  C   7.10175631407765      2.60821482174281      0.65512672879977
  O   7.93541734647211      1.73660986804491      0.83836656928759
  C   5.13197050379539      1.18638594102859      0.14060428223913
  C   5.83996605630479      0.04078536299808     -0.12012825834258
  N   5.14712738272026     -1.15380536969154     -0.28712878914366
  C   3.76856880592152     -1.32669238118763     -0.11585966259123
  O   3.29762042381267     -2.46328005227918     -0.22592738289146
  H   1.99723958237886      2.23180092767113      0.24001281138546
  H   3.70815408092486      6.79634457685905     -0.48974178095330
  H   1.92270615861947      4.92428158089883     -0.02208212857136
  H   7.35663061641786      3.67458931932636      0.76217036996771
  H   6.91270890593672      0.00650011163941     -0.14860969253304
  H   5.65320338822791     -2.01458948040880     -0.40256757170040
