20
Coordinates from ORCA-job 11537optt
  Br  0.98778388766483      0.00034187398220      0.00308635105515
  C   2.86469206564597      0.11378035370353     -0.01448998084518
  C   3.55120445284406      1.26224542487941     -0.02259717732420
  N   3.21767981586202      2.60025730173835     -0.02355316808719
  C   4.37294725996661      3.34013750139929     -0.02646763479088
  C   5.47096279950050      2.46629439612267     -0.02965624735035
  S   7.09706426554756      3.07175626169292     -0.03351514784594
  N   6.86942927742241      4.71570559176466     -0.02108009516560
  C   5.75030225165026      5.29963430282491     -0.01709981049653
  Br  5.86191906098400      7.23833358320424      0.00241873678428
  C   4.37523183553106      4.75395950923954     -0.02343529730715
  N   3.24424375279904      5.40898047605129     -0.02376783792843
  C   4.99768437945296      1.14946590035128     -0.02762905277579
  N   5.64293565616867     -0.01471029385838     -0.02771692473190
  C   4.90793321856960     -1.15041614391723     -0.02331046550811
  N   5.32080611367056     -2.35548762570186     -0.02448739218513
  O   3.48678323063292     -1.07659927969161     -0.01542595513661
  H   2.30340487405704      3.02083505174120     -0.01974355402902
  H   3.40528140005442      6.41162872276145     -0.01979542467530
  H   6.33571040197547     -2.31814290828787     -0.02973392165612
