20
Coordinates from ORCA-job 11530optt
  Br  1.02788177874230     -0.02730236005804      0.03470832299894
  C   2.92945160805030      0.08940408741310     -0.02336136514087
  C   3.54976019770466      1.32329253274558     -0.06317440528803
  N   2.82859035702509      2.50601686134380     -0.07621420397339
  C   3.45883748397088      3.71427579720803     -0.11688406965260
  C   4.87870890169071      3.68482456675743     -0.13883419870942
  S   5.43248669585023      5.33716976606250     -0.18848236100517
  C   3.76874236509075      5.86733887957257     -0.17639947562964
  N   2.85601987419378      4.88565393506342     -0.13698609880845
  C   3.44093799044655      7.23261588458514     -0.21239906754263
  N   3.20269016497854      8.36312255330846     -0.24264936454118
  N   5.61443406755373      2.61146116179562     -0.12805227049072
  C   4.97677325980686      1.41244301786166     -0.09272049697248
  C   5.80299754613368      0.19415636863918     -0.08579545291166
  O   7.03761157221434      0.23180220623986     -0.10871824852114
  C   5.05915435478305     -1.04701109961254     -0.05115610971013
  C   3.69558881487762     -1.08717019309109     -0.01907298986537
  H   1.81962020411043      2.47197090689927     -0.05969046128596
  H   5.64012494823709     -1.96011920926395     -0.04901626127057
  H   3.17658781453938     -2.03794566347002      0.00989857832047
