23
Coordinates from ORCA-job 11532optt
  Br  1.04185067725035      0.18974790429984     -0.02048658689380
  C   2.91916496177482      0.12346065916785      0.05885614209452
  C   3.55982143170833     -1.08620091475847      0.04786512064929
  N   2.96109909979497     -2.29232806756365     -0.00616055259701
  C   3.62133985946486     -3.54169059042890     -0.03129060775090
  C   2.87247821360899     -4.69547380094420     -0.09519807177031
  S   3.57256639122689     -6.29102405134520     -0.13392720346391
  C   5.38855726552536     -6.00150233175043     -0.07303536896559
  O   6.05947626121193     -7.02890326262239     -0.09058954709928
  C   5.83040704964903     -4.67628675875585     -0.01274141537427
  C   5.01543768678426     -3.52439941748503      0.00836597398838
  N   5.63974214244655     -2.27728133187924      0.07590599550167
  C   5.01280284930851     -1.06730546790255      0.09843746564556
  N   5.71129127708664      0.01985847034546      0.15926996702567
  N   5.00929109761991      1.19334513899857      0.16979907423333
  C   3.64476603716474      1.37047062882025      0.13745460692721
  N   3.05865362293660      2.51872198189172      0.16995809543266
  H   1.95247003603228     -2.30159554432088     -0.03855652049751
  H   1.79192559848030     -4.65620959869717     -0.12516237737667
  H   6.90723044717854     -4.55185673497000      0.02186583898789
  H   6.64680231581732     -2.25516389520418      0.10414091019984
  H   5.59053588872133      2.00774037393643      0.25401819216360
  H   3.74328978920743      3.26987661116805      0.22321086893964
