23
Coordinates from ORCA-job 11549optt
  Br  1.85846280181702     -0.92396273550076      0.57870013647214
  C   0.56299290606209      0.28351363192185      1.32277782201461
  C   0.99344740562130      1.57561071606254      1.59680079851225
  N   2.26408932382690      2.02002521575941      1.31217475967334
  C   2.39960477405497      3.27944886089066      1.25502028652056
  N   3.51715766602935      4.12454504443632      1.25966303930573
  C   2.71152859812199      5.16104568548270      1.96679079025881
  C   1.43081488364113      4.36735805370480      1.60559799918924
  C   0.50824352177066      3.77252209688315      2.65107593565614
  N   0.01776373177974      2.51087204823606      2.07223191465145
  S   -1.24911050743650      1.86536631876141      2.98098174458887
  O   -0.68962277379488      1.43761313886299      4.24018407983514
  O   -2.27768486057933      2.86921895438415      3.04212243836755
  C   -1.64668670382668      0.54599934459012      1.95425626420295
  N   -0.65215687201540     -0.18833936250828      1.41000627165106
  C   -2.99340959805001      0.15190903927862      1.87607078743065
  N   -4.10131342796711     -0.16925569513033      1.79449885246627
  H   4.38193735060948      3.78083787108536      1.65938026091879
  H   2.81309940734245      6.15808852739420      1.54202617522731
  H   2.89500479481664      5.18560129617880      3.04285404438806
  H   0.88014434223934      4.78121346118141      0.76210574566671
  H   -0.36133102194457      4.38658731918350      2.87648923775829
  H   1.06202425788142      3.58418116886127      3.57919061524404
