22
Coordinates from ORCA-job 11541optt
  Br  1.31071825764220      0.09023014878664      0.01183331001643
  C   3.18185740447081      0.15800467551114      0.01328016921983
  C   3.92127668312310      1.31804415278238      0.01332980473322
  N   3.49389622148860      2.59634463007549      0.01280039417435
  C   4.63194830200601      3.33422531009408      0.01289630904763
  N   4.69034909362820      4.65974924348105      0.01246376804912
  C   5.94957982540180      5.13888557896166      0.01244746449172
  C   6.43294166849625      6.48560879863927      0.01188988238546
  C   7.79961811065461      6.42839715629485      0.01189461203082
  N   8.20369400542155      5.11032372415654      0.01258776790324
  C   7.09233137112173      4.29715982679663      0.01291005524538
  N   7.09541161832195      2.97190516820975      0.01347614378040
  C   5.84294945546011      2.48693387003587      0.01348983402566
  C   5.36383412510588      1.17930390057708      0.01388862020611
  C   5.92933548520404     -0.12231146713567      0.01441295615187
  C   5.10974982122806     -1.18803055945017      0.01443368154798
  O   3.74684959640777     -1.08214001214997      0.01391385107212
  H   5.83362669497859      7.38127122783516      0.01150654709648
  H   8.52653531172305      7.22352817026609      0.01148328916413
  H   9.14758053769115      4.77070661389470      0.01247194033813
  H   6.99971569573717     -0.27932870817354      0.01477453371894
  H   5.41720071468732     -2.22181144948904      0.01481506560097
