27
Coordinates from ORCA-job 11553optt
  Br  7.68626235636159     -6.93521678033060     -1.94460803256195
  C   6.29193920226055     -6.74513687383237     -0.68983309047368
  C   5.87660679046969     -5.47426043097840     -0.33916990588027
  N   6.29435738854938     -4.25272062841957     -0.64695964750495
  C   5.60317147028321     -3.36638443686807      0.13923172158848
  N   5.11869470741884     -2.14250141746710     -0.42435009871669
  C   3.71460556126466     -2.01542705369073     -0.01582303749992
  C   3.22696645689948     -3.44200748222776      0.28344120588072
  C   4.48807738616577     -4.06547753053396      0.91717936899668
  C   4.48468453387776     -4.00305114561817      2.44232553529242
  C   3.47450953451162     -5.01126210433649      2.99225649719902
  N   3.56076526150377     -6.29875036316687      2.30887828953677
  C   4.42639371588754     -6.53307865796690      1.25902840332423
  N   4.82415326105261     -7.72922672538650      0.99141184130769
  C   5.72765256814461     -7.92792325191137     -0.08038417674552
  O   6.02697746225073     -9.07005384260964     -0.40426962085334
  N   4.78635953394488     -5.43683214795616      0.55669100277267
  H   5.21521821537752     -2.19280250413479     -1.43441681060593
  H   3.13227220206253     -1.51379761967352     -0.78857700222221
  H   3.65430996831459     -1.40381781782110      0.89090045072924
  H   3.01101147251076     -3.96916862799283     -0.64789644115596
  H   2.34095989796500     -3.47404522276148      0.92106968746534
  H   4.23386083170970     -2.99965260356142      2.79204145754968
  H   5.49267045516529     -4.24137456957105      2.78739848544670
  H   2.46255432555148     -4.60734028881119      2.88580547523996
  H   3.64851916592959     -5.15963706829137      4.06069519474357
  H   3.41844627456672     -7.13205280408046      2.85593324714723
