23
Coordinates from ORCA-job 11550optt
  Br  1.21053173780426      1.01402391536796     -0.06161883425804
  C   3.06072186023366      0.61302257549173     -0.04488894686044
  C   3.98182805938337      1.66928041657484     -0.04012401859973
  N   3.72558389288890      3.02399562418329     -0.04753330881008
  C   4.90050121854838      3.59524569187859     -0.03796855579896
  N   5.94298202491132      2.68108964521855     -0.02391579484596
  C   7.27169714878211      3.25102294623465     -0.01507830717933
  C   6.87960341388171      4.70366403446964     -0.02456426318089
  C   5.51721839965964      4.90415544745408     -0.03835686909613
  C   5.29685605781062      6.30793340297414     -0.04779003248413
  C   6.53885057727213      6.89727198523309     -0.03901858451964
  N   7.50280019153842      5.91267309277696     -0.02448196957987
  C   5.40104007936835      1.41789261392212     -0.02582589771109
  N   6.09775104025367      0.31538381115303     -0.01663122315942
  S   5.20389605496873     -1.10826515679636     -0.01984128762468
  C   3.43681458972352     -0.75089315613947     -0.03565223039688
  N   2.62927868738363     -1.75966703305540     -0.03761995766420
  H   7.84473171857677      2.94168527859429     -0.89508401979022
  H   7.83036799532609      2.94843412174494      0.87636843277438
  H   4.35424068998845      6.82808958552240     -0.05957937163176
  H   6.81915221889402      7.93689430857796     -0.04148693092359
  H   8.49274703707406      6.07563085585778     -0.01633879690288
  H   3.14580530572815     -2.63756400723883     -0.02896923175647
