25
Coordinates from ORCA-job 11563optt
  Br  3.13763322412162     -1.59765270685027     -2.14096316613966
  C   3.31608879519774     -0.59789453515762     -0.55136087521943
  C   3.05184169971889      0.78063163427548     -0.52814001394333
  N   2.29761649823560      1.38513918668895     -1.61370582782436
  C   1.21739496842029      1.98265896930280     -0.97728546093786
  N   1.07429939515846      3.25067626806449     -0.86074660385274
  C   0.45156641562482      3.44504903382728      0.44695013623629
  C   1.63181504977606      3.44132230566259      1.48808450452617
  C   3.00585893435512      2.94793962992345      0.96088799542195
  C   3.22875918224147      1.45586165139749      0.70958218927728
  N   3.65942420498711      0.86526269920936      1.79934945528478
  O   3.89802043213009     -0.51359533288852      1.74762408209247
  C   3.78013900569660     -1.28448041607876      0.60070323842347
  O   4.06922184399976     -2.45687348706542      0.71606616278907
  C   -0.39718661936939      2.20414565391714      0.66447618054053
  O   -1.38714125642328      2.11230270156050      1.33926691588850
  C   0.26516328420688      1.12735197860661     -0.16886234153164
  H   2.83146454870568      2.08461470530347     -2.11863961100087
  H   -0.14352322645083      4.35324069081902      0.52766893550402
  H   1.35288852135420      2.85286663828137      2.36650535786006
  H   1.77792101433701      4.46594473731938      1.83444581807107
  H   3.72745310766157      3.20255112735315      1.73820381694631
  H   3.26627152083460      3.51559189533240      0.06937916690356
  H   -0.44717891319861      0.61394368030771     -0.81785546802352
  H   0.74218836867849      0.37540129088793      0.46236541270787
