27
Coordinates from ORCA-job 11568optt
  Br  3.37823279251102      1.95072031326767      0.98083274413146
  C   3.69273918106085      0.42980022882233     -0.21533575769976
  C   4.50420321522963     -0.62532836560184      0.22980980592062
  N   4.55064434989757     -1.00979463853274      1.58170383369337
  C   5.04543021468794     -2.15033665954382      1.79932641821599
  N   5.44270462597042     -3.05291436481466      0.82891527037362
  C   6.10654693414538     -2.43483757356833     -0.31996124145088
  C   7.56647404587307     -2.07256530560118     -0.00142130831803
  C   7.79486598088450     -1.26204610540478      1.28554336698652
  C   7.74314637233646     -2.03724130827376      2.62815513488588
  C   6.51067309662676     -1.86338315988811      3.52100005956463
  O   5.34453692798284     -2.56091502670348      3.07132971724771
  C   5.29741306969773     -1.22703448041992     -0.72592619512138
  N   5.46648913542436     -0.79843266443234     -1.99141077706371
  C   4.74059278658090      0.24531725662960     -2.40969969990703
  O   4.77445766721042      0.78532653266390     -3.48974734341692
  O   3.76689654466232      0.79310734758892     -1.51147750265010
  H   5.94214493667811     -3.83511082260137      1.22698781594872
  H   6.09233240943991     -3.13551552388591     -1.15661193925504
  H   7.93971546723384     -1.50499631032002     -0.85706939963503
  H   8.15748682284933     -2.99582793555168      0.05435262990348
  H   7.10182758019048     -0.41665786191612      1.31306928650597
  H   8.79302977094186     -0.82747311337972      1.20226729322145
  H   8.58188714620956     -1.70192918861022      3.24515937029615
  H   7.90899958747235     -3.10633588940561      2.45603983622742
  H   6.26250797245713     -0.80176080521188      3.61292388891965
  H   6.71502136574500     -2.26883457530489      4.51224469247519
