24
Coordinates from ORCA-job 11569optt
  Br  4.37116111477181      3.42964318291339      2.42349995315833
  C   3.82474143648872      0.78423422769009     -0.86647851387318
  C   4.00577055469707      1.94006907605584     -0.05913337341186
  N   3.14105569061489      3.04530107784041     -0.41155894202490
  C   1.94629091351067      2.72091086381894     -0.16982654289543
  N   0.75272543655652      3.22505994670711     -0.67460231745185
  C   -0.20861371676956      2.19385364813437     -0.52723745452000
  C   0.32825113292399      1.25092782214188      0.24830948557097
  C   -0.01392116245667     -0.10209917065160      0.75188796606780
  C   0.87726867502344     -1.22802747898685      0.16128424694405
  N   2.32224636160608     -1.04777531107274      0.25813790766278
  C   2.91271677875013     -0.32477985784541     -0.75880294915945
  N   2.57596357820171     -0.28755238171694     -2.02222261951539
  O   3.49500062784385      0.84083930242567     -2.22847590566705
  C   4.63792001466759      1.75447465163177      1.16247338560827
  O   5.26775354153527      0.85790101700150      1.65060216116137
  O   1.58795041802840      1.65032371746277      0.60818630334710
  H   0.82735114297383      3.73581969614888     -1.53940191675324
  H   -1.17912149765141      2.24877412179976     -0.98602412790814
  H   -1.05684333082739     -0.33247776221330      0.52702497741060
  H   0.09794416107845     -0.10064989669286      1.84109951803020
  H   0.64894914467304     -1.34799317515765     -0.89691109831424
  H   0.60373832731205     -2.15687409825106      0.66720535415064
  H   2.66070065644749     -0.74590321918399      1.16296450238262
