21
Coordinates from ORCA-job 11579optt
  Br  1.34059839658640     -0.05460473976877      0.08405084362348
  C   3.20619820164235     -0.34764359784037      0.09296471836321
  C   3.70646699987869     -1.60654587153094     -0.07245001504547
  N   3.07694757176940     -2.80588592329654     -0.25754600449171
  C   3.99941622492371     -3.82427743456784     -0.37223618785280
  N   3.62031197045189     -5.06905994550106     -0.68499143914987
  C   4.60891974712708     -5.94204686236987     -0.47972550977783
  C   5.59030267085780     -5.71149917960169      0.50242620757373
  C   6.75647669760308     -5.16218591934136     -0.18992377635974
  O   7.75057327990124     -5.63252686469696     -0.64763676224489
  O   6.52771797925996     -3.78121581313458     -0.42962161396696
  C   5.30434389358063     -3.21598960475670     -0.26234188620557
  C   5.11589200485529     -1.84581711918588     -0.06991700978307
  N   6.02010865719692     -0.84409079244473      0.08975687527745
  C   5.53890541497203      0.34944072717940      0.24643737463136
  C   4.11739050059574      0.74863624590894      0.26602915827497
  O   3.79146382335528      1.93342669806210      0.41992204891433
  H   2.08218720537637     -2.94665789654205     -0.30129427793285
  H   4.67438156066699     -6.78485748206445     -1.16611431853580
  H   5.23108553104791     -4.99921215566213      1.24461739713700
  H   6.23831166835114      1.17061353115553      0.38159417755103
