27
Coordinates from ORCA-job 11570optt
  Br  1.36721916452530      0.54750374439319     -1.54970386011369
  C   2.84564644278754      0.61605381460795     -0.37304034056367
  C   3.29563844782874      1.88279921742240      0.11024258494799
  N   2.67862838435358      3.08957564439564     -0.21321728522032
  C   3.42822007824436      4.09718015425062     -0.36709085212013
  N   4.78200230101320      4.19685671286136     -0.69312501742492
  C   5.32662133379918      5.33389241812316      0.04209897415783
  C   4.08306707216128      5.84129907951171      0.79383586127762
  C   3.97416763351200      5.31579922936900      2.23503101708329
  C   3.70882623520542      3.81871419888993      2.42798916739681
  O   4.70023167343551      3.03599648399258      1.77627458626092
  C   4.27962692556981      1.86603056013049      1.14333171449332
  C   4.86761781001061      0.69888554245776      1.52723141127839
  N   4.56990948511723     -0.47065260121832      0.83272394356684
  C   3.44867342043469     -0.60751709842019     -0.02506932899159
  O   3.14380007440063     -1.75384185626501     -0.37984536738650
  O   3.00643998182946      5.36941779422771     -0.02506983394112
  H   5.27736316983739      3.32430334922280     -0.58185323277211
  H   5.71242644480534      6.09131556440728     -0.64407646518144
  H   6.11718752924032      5.03217072630319      0.72921724398428
  H   4.02798972778479      6.93000079251771      0.80398036036532
  H   3.15629022936948      5.84355690997741      2.73379705594074
  H   4.89797768693609      5.59475363669862      2.75263520469463
  H   2.71755522198080      3.56219343410624      2.05716248404872
  H   3.74013258371335      3.59781232096263      3.50154525873468
  H   5.57468491756756      0.64935392793017      2.34130699577413
  H   4.88405602453623     -1.35545370085611      1.19368771970994
