26
Coordinates from ORCA-job 11580optt
  Br  0.91516643133975      0.11073044042474      0.27315163876261
  C   2.81615911698673      0.14323074272736      0.13714179632803
  C   3.47072578657273      1.33268329618697      0.38706638431962
  N   2.77006953762975      2.47805498651894      0.78783049401086
  C   2.98023465920726      3.78556119259266      0.40386035923352
  N   2.00141735769763      4.66708941353348      0.44405012867400
  C   2.55782846495601      5.85333220352655      0.04973988231176
  C   3.87574072715259      5.68910232641271     -0.23344101393383
  N   4.15224386145401      4.35190841402571      0.00311046547492
  C   5.48121822738792      3.77987823646890     -0.14473671358842
  C   5.67187820606314      2.55318162686048      0.73402446007343
  C   4.88051030689193      1.36579290496209      0.29694168962872
  C   5.50166316977978      0.17950496499004     -0.11870219175717
  N   4.90488865100852     -0.94943640313803     -0.38340736744102
  C   3.53725408640942     -1.04066059927100     -0.23533677343915
  C   2.99271748125238     -2.33623807662731     -0.48250182783565
  O   1.81251399015642     -2.71875310590554     -0.39128875374079
  H   1.78190157693954      2.32411141200322      0.94230212490189
  H   1.97264799362965      6.75680180441172     -0.00779490854208
  H   4.64209368109041      6.36240919050315     -0.57557906451871
  H   6.18716827177034      4.56716086474396      0.13245308330175
  H   5.65514757638180      3.51168128556318     -1.18968441521292
  H   5.43016864086821      2.83855750255462      1.76634882405773
  H   6.73253756822206      2.29165337034087      0.71469105170779
  H   6.58857927961216      0.18300884308751     -0.21890182128573
  H   3.78552534953973     -3.04334683749705     -0.78833753149115
