23
Coordinates from ORCA-job 11586optt
  Br  1.00383515966722     -0.06624229258876      0.04357760329835
  C   2.88882260835522     -0.12837025948062      0.04285098658992
  C   3.58871780413608     -1.27573871671775      0.04311208010910
  N   3.12862901858499     -2.59217968420588      0.04378116239944
  C   4.23624715431690     -3.28398974241551      0.04378573837340
  N   4.32750039751040     -4.64203756871767      0.04425067983187
  C   5.58796215963461     -5.23030255375900      0.04431801089195
  C   6.70107850367863     -4.43957057469083      0.04378940177705
  N   6.70219370397890     -3.08659783297324      0.04323386904978
  C   5.47651104075365     -2.52694403871608      0.04322554693567
  C   5.04619589689017     -1.18268432648586      0.04274075512037
  C   5.68988324141915      0.06006215516485      0.04213104256160
  C   7.09588025888504      0.20028565614340      0.04205086548887
  C   8.28700510421483      0.38890036206236      0.04202592202156
  C   4.90226194646568      1.27934954572985      0.04165284039770
  N   5.30083542614715      2.50789366303786      0.04094833775186
  N   3.51993055916590      1.08742344050420      0.04208684793278
  H   3.48214832072905     -5.18689262463631      0.04490833060048
  H   5.62459147526789     -6.30834639391443      0.04473643386818
  H   7.67044399506340     -4.92581910140232      0.04382095085894
  H   9.34124719423473      0.51444763052623      0.04137905689048
  H   6.31614272882831      2.52703709166693      0.04074837477849
  H   2.97793630207205      1.93631616586860      0.04184516247219
