27
Coordinates from ORCA-job 11584optt
  Br  0.68360609410794      0.00726631248923      0.10190729345866
  C   3.21676202650384     -0.30012594561716      0.32899472028787
  C   3.99535437574530      0.81419833365890      0.38524916829388
  N   3.32289255309831      1.94110189164309      0.98610602699834
  C   3.98337023004674      2.89377526078129      1.64813997878317
  N   3.74685921562916      4.16035078945875      1.83859419027324
  C   5.10717062180555      4.78727022535624      1.70612822932439
  C   5.77250261142376      3.63486594835250      0.89270026053322
  N   5.35511096049062      2.51883739736263      1.76810123907520
  C   6.97379673072336      2.97002351521544      0.26054064313994
  O   8.14304182678312      3.22591833802180      0.32280623924787
  C   6.41513722627295      1.79977212988521     -0.60610709464901
  C   5.33077097975530      0.73267555575097     -0.22728537758352
  C   5.70555235440554     -0.49988527248026     -0.69977938009199
  C   4.88107306267427     -1.68477386067159     -0.71419211260168
  N   5.17493290854662     -2.86761671446475     -1.14003643598845
  N   3.61016725849441     -1.45408200047740     -0.21752385756842
  H   2.34463027227578      2.04429968785276      0.73796372639953
  H   5.61568089975021      4.97447463998134      2.65813187602673
  H   5.00411779354345      5.72867728908025      1.16811463124713
  H   5.10315370684970      3.60383718462594      0.02712149001162
  H   5.68201798464826      2.74744852569197      2.70397896029321
  H   7.29707803604010      1.24708024878810     -0.92039834424272
  H   6.04449484254993      2.30922363212012     -1.50615368296350
  H   6.68206210267054     -0.62362140173218     -1.14852056544291
  H   6.13061865043270     -2.87918349854234     -1.48235052653953
  H   2.95104467473236     -2.21980821213089     -0.27023129572228
