22
Coordinates from ORCA-job 11590optt
  Br  0.86177112575939      0.62573728095870      0.16386504121749
  C   2.73269607344443      0.48154019644377      0.08283765352707
  C   3.52691034576220      1.57580564673020      0.03566285341985
  N   3.20426921174707      2.90671042945678      0.00930351968184
  C   4.34405173218208      3.56617959103397      0.00434393931710
  N   5.44907210260600      2.65791136057378      0.05407985398809
  C   6.70666729491251      3.25957065836250     -0.13284143266451
  C   6.84118489098547      4.26920540007137      0.73352191054079
  N   6.93469992374887      5.59711660633301      0.28359381883173
  C   5.73673531777808      5.84082927030379     -0.14380991164075
  C   4.48188438328650      5.01749365826442     -0.16383475698556
  N   3.34492444504832      5.67013508841435     -0.36356142705891
  C   4.97798939142936      1.39186172107354      0.02078148264135
  N   5.71891770450378      0.32631709052347     -0.01028079180300
  C   5.14119343196776     -0.91205484499952     -0.03102089103929
  N   5.76194688113760     -2.02303510175059     -0.10700122116224
  S   3.35339796379447     -1.14115450799793      0.07827592253936
  H   7.09352269036568      3.29825592331251     -1.14447803734829
  H   6.40240958698362      4.15168128634293      1.72400960305901
  H   5.55608706272475      6.85730423342530     -0.49866715864799
  H   3.54529244295106      6.66485715439674     -0.45797132189055
  H   6.76037599688094     -1.82126814127311     -0.14580864852258
