26
Coordinates from ORCA-job 11604optt
  Br  0.97094987712473     -0.10729264532084      0.29312936873226
  C   2.86470410912294      0.03417172150810      0.17328336849433
  C   3.46900446117324      1.30219547989806      0.31088330385349
  N   2.64455243356690      2.37496916693296      0.59044556394559
  C   2.89940159261625      3.53117575764520      0.08174802233397
  N   2.15944134041133      4.62339639916741      0.33197344255151
  C   2.71391466486671      5.86287253181823     -0.19171732887970
  C   3.86174490891674      5.38605090435271     -1.08280605038035
  O   4.87776527793369      6.12764524462922     -1.32194757932672
  C   4.05763370986147      3.89959060737250     -0.80588780489113
  N   5.28028625722668      3.71617407340743     -0.03546507518008
  C   5.73759736668690      2.54583249162792      0.46189847157388
  N   6.85432965712620      2.38090556331594      1.08264979901057
  C   4.88593537280773      1.32371685612644      0.24350213854459
  C   5.59484293522744      0.14446638409047      0.02125103288294
  C   4.95852433668563     -1.07044344898074     -0.14527271595222
  C   3.57428486354673     -1.12496993742459     -0.06087600815157
  H   1.39076106768495      4.56589439175035      0.97898148246961
  H   3.09648149427203      6.49405142439055      0.62523918178782
  H   1.94903814794158      6.43255737148569     -0.72870996855918
  H   4.08575890491403      3.26807651516437     -1.70376551449623
  H   5.87307763168166      4.53973762713544     -0.05213295890030
  H   7.35712754182070      3.26606376678548      1.13125947214051
  H   6.67324149438239      0.21549619710280      0.00009084973030
  H   5.52827773612614     -1.97128708226912     -0.33132309423303
  H   3.04332281627512     -2.06004736171207     -0.17743139910082
