25
Coordinates from ORCA-job 11605optt
  Br  1.21116966237366      0.43993172782467     -0.77123074137741
  C   3.02695822891180      0.15836615903416     -0.20009379915814
  C   3.68150535207116     -1.00943620052781     -0.54375000009247
  N   2.99744589852682     -1.94742838941904     -1.34849539163485
  C   3.09007717491685     -3.28894031623871     -1.27600867019187
  N   2.25493031612531     -4.09562812573227     -1.82806187506889
  C   2.71222884586868     -5.46091373770751     -1.63858977335676
  C   4.05660864314677     -5.37867844976396     -0.92677402203303
  O   4.80806377800526     -6.28230357988434     -0.69911303314182
  C   4.26148989403170     -3.90315649961262     -0.56314529345145
  O   5.48791763803016     -3.43349854188634     -1.02372116136888
  C   5.96188694366816     -2.24052076960390     -0.44834809983466
  N   7.24171540915615     -2.17145883396216     -0.26259060168578
  C   5.05305877541166     -1.18940293524184     -0.11247459697329
  C   5.61077616580736     -0.11206500626845      0.66229072437520
  C   4.91481194133766      1.02167781156074      0.97166439445242
  C   3.58960959642562      1.20416763691337      0.54161108533659
  H   2.16950165600402     -1.61243642649169     -1.82030669859660
  H   2.82985356642276     -5.98941929917641     -2.58961923959051
  H   2.01307352381991     -6.04950679195617     -1.03434536668438
  H   4.16814703839840     -3.77775222373336      0.52448712826426
  H   7.64651202117394     -3.07565063491298     -0.49071561154740
  H   6.63556967450588     -0.23568587209375      0.98071668440495
  H   5.39374747531341      1.79820381834715      1.55732697321626
  H   3.01634078054681      2.08853548053326      0.77028698573853
