22
Coordinates from ORCA-job 11607optt
  Br  1.02937398253605      0.87682623634358     -0.31581302345151
  C   2.86491245571812      0.40972811602568     -0.21657239212711
  C   3.81470212836024      1.45341582800382     -0.17139966258407
  N   3.54703712222233      2.81644642049844     -0.21899057106751
  C   4.71530207374898      3.36249384122130     -0.12500920561123
  N   5.75815976137954      2.49854665758900     -0.00653834026702
  C   7.02686287661694      3.15610586861186     -0.05114464101926
  C   6.60634394474366      4.63238273709303     -0.14380451004473
  O   7.34095564076188      5.58545763799186     -0.16957815350634
  N   5.21712817678050      4.66378590158035     -0.18986716149250
  C   4.45063816689062      5.83045510567536     -0.28964920745402
  N   3.19441051327893      5.88126984427606     -0.34880425923419
  C   5.21804129469593      1.21639089673109     -0.06287694291738
  C   5.85825419552432      0.01022130355043     -0.01317121472457
  S   4.92957021332577     -1.46219964539176     -0.09571453150756
  C   3.15307815541205     -0.96242232498052     -0.19776464078125
  O   2.39087535377941     -1.91704493684129     -0.24257525850194
  H   7.62394298568250      2.88949484734020     -0.92884032253997
  H   7.63434304014593      3.00404454438968      0.84457616999432
  H   5.07153620918223      6.72208084606959     -0.31092335646633
  H   2.77631821583249      4.94652472147035     -0.32123941176503
  H   6.92921349338150     -0.09000444724817      0.08770063706919
