20
Coordinates from ORCA-job 11606optt
  Br  1.43162746116789     -1.45241973613151     -0.49114661141618
  C   3.15409805029059     -0.53520880377684     -0.20205082032929
  C   3.06775227504161      0.89126808942054     -0.21986491041463
  N   1.95794490106321      1.66468765923821     -0.41821543949102
  C   2.33143797943351      2.92663281954534     -0.33315820593097
  N   1.49560216791446      3.95095550127670     -0.48197958193161
  C   1.74645476338742      5.25407099191697     -0.39431172150840
  C   2.91560916512240      6.01630574457765     -0.13199853676244
  O   2.88443026887057      7.27224498022490     -0.08960641145842
  C   4.22797535615272      5.37135831156019      0.09588134120052
  C   4.57728643188815      4.08788444404779      0.11855958687648
  N   3.73726847981657      2.97831237164302     -0.06911840969216
  C   4.17244523506282      1.69530497106337     -0.00659721941385
  N   5.48959174521850      1.41092837575660      0.23241858999092
  C   6.18999193057652      0.43366822723933      0.33553340481645
  O   7.00913692370845     -0.37611907977653      0.46396545489474
  O   4.13817169737765     -1.19631088311486     -0.02998341393617
  H   0.87580056928455      5.88644217555279     -0.55323637590464
  H   5.02433357252828      6.08582786784237      0.26814815156310
  H   5.60204102609409      3.79716597189394      0.30176112884758
