22
Coordinates from ORCA-job 11603optt
  Br  3.89416926963546      1.04760659048483     -3.37838946865700
  C   2.08935646482579      1.54286682283845     -3.18773418175932
  C   1.65528074289891      2.12739237248797     -2.01472358105041
  N   2.34799038403902      2.47208970815397     -0.89834168700587
  C   1.46483685527661      3.08835109383921     -0.13635600147228
  N   1.64270341979406      3.87805030484166      0.98063829137356
  C   0.65637074198225      4.96364615384620      0.80325392500806
  C   -0.20558279414897      4.53333300915404     -0.38444500869960
  O   -0.95493632672061      5.26740168104569     -1.00945016221738
  C   0.04841105580670      3.04020039894002     -0.60239766584849
  C   -0.89784150426041      2.18897916111172      0.15242768299729
  C   -1.61923770445105      1.59868749692663      0.91012129875718
  N   0.32375123627802      2.50824567869643     -1.93476847246429
  N   -0.60896096545369      2.25863385887730     -2.84206997689348
  C   -0.20496288373041      1.71223566782711     -3.93785085819453
  C   1.17953889671151      1.31861471649777     -4.26542940702419
  O   1.45081293600480      0.84061729125010     -5.36998759056217
  H   2.59889136629071      4.19660272795739      1.06884345500234
  H   1.16205161656073      5.90383002632485      0.57368649036358
  H   0.03793026034078      5.10954109503600      1.69478720409010
  H   -2.26291705989312      1.05585634284966      1.55850626251021
  H   -0.95965600778710      1.52021780101291     -4.69132054825326
