24
Coordinates from ORCA-job 11616optt
  Br  4.00305359969395      1.01292872648923     -3.97382802723458
  C   2.24534159718921      1.51382582541779     -3.52841578538570
  C   1.90107660655051      2.23959428337971     -2.44347723253974
  N   2.75689915463113      2.72802222522045     -1.41220759646333
  C   1.95665925796412      3.26168783388138     -0.58823061168067
  N   2.17227584729455      4.14742844268548      0.45785506003807
  C   1.10930062488536      5.04781932216690      0.55200561756580
  N   0.98484427829537      6.03501718823777      1.33652290236823
  C   0.08178698709890      4.65137506693244     -0.50180575146154
  C   0.46741792829120      3.18994290667290     -0.87932350885452
  C   -0.20470103559540      2.31561659984448      0.18209209903530
  O   -0.83274730491378      1.32016288478810     -0.02017302069045
  C   0.53978991625906      2.61250772985980     -2.25183741046772
  C   -0.42591912400892      2.16538068275975     -3.16657057270808
  C   -0.03431651022084      1.43010764774086     -4.31426534436360
  N   -0.73368751555729      0.95328849908873     -5.28651815862366
  O   1.34109908942135      1.15346167497267     -4.48012511985702
  H   3.10166185560457      4.38927040175004      0.76357951548630
  H   1.79256569288754      6.12911834428656      1.95119718617956
  H   0.22453604989823      5.28630849331336     -1.37718492036525
  H   -0.93012619593959      4.79198590521476     -0.12548611044428
  H   -0.09394551180986      2.70743751126209      1.22024978249763
  H   -1.48316530948177      2.34334899128154     -3.03055355807817
  H   -1.70669997843762      1.19336281275318     -5.11849943395256
