21
Coordinates from ORCA-job 11615optt
  Br  1.81777314553094      1.13457935189565      0.85265797515494
  C   3.44199280846160      0.65432464916294      0.00346063366727
  C   4.33144112171434      1.54869133247353     -0.48125741204639
  N   4.55996655261017      2.93577894612404     -0.22371760215578
  C   5.86256260502836      3.04416754935883     -0.38604384598091
  N   6.75674491259055      3.98551799238546      0.09285392446978
  C   8.05624314634417      3.54738889415193      0.40139616238163
  N   8.53889647207082      2.35683507087681      0.27091475697381
  C   7.69432162152997      1.42827320229352     -0.30652115216122
  C   6.52208298358954      1.89963241484803     -0.87842534218980
  C   5.55583785653247      0.90405015160351     -0.86859192402069
  C   6.07204620374635     -0.30369711332770     -0.44404231999854
  C   7.51103958680939     -0.05859163894096     -0.08674854462874
  O   8.32419327543085     -0.85977683081840      0.36638343345631
  C   5.09702934325145     -1.24042329423922      0.05585945362902
  N   5.20676055602469     -2.43584650641372      0.51140088577826
  N   3.77630691698574     -0.68721379848952      0.05292287567117
  H   6.41472656459458      4.80747784061253      0.56638171480378
  H   8.67763362491402      4.32544201906579      0.83076111489706
  H   6.17414719190028     -2.72951371037506      0.40994722229873
  H   3.08825351033969     -1.32709652224799      0.41940799000031
