20
Coordinates from ORCA-job 11610optt
  Br  1.17819071173199     -1.14380700745724     -0.09888184757243
  C   2.87446082835683     -0.34341394815042     -0.02741737153070
  C   3.07183168963256      0.99352271392990     -0.08018306409051
  N   2.20325480882738      2.04711402608748     -0.21980449885778
  C   2.93861705007068      3.13461624874027     -0.21265624380361
  N   2.46240379357957      4.37172571679194     -0.23679402411465
  C   3.23487839281962      5.42479339437518     -0.01367581460599
  C   4.65158580485072      5.57637494051156      0.02650290326192
  O   5.21904078133047      6.55559764890075      0.51717946763185
  N   5.51003755712497      4.67749039505020     -0.72391269146143
  N   5.41087678037960      3.46274941039896     -0.76647405330419
  N   4.34896479171671      2.82062358034198     -0.05922089304286
  C   4.43495091033199      1.44484316746211     -0.02285311468266
  C   5.51610337155405      0.62436736748783      0.03076061250185
  C   5.29919553604583     -0.79713942839315      0.08793716734251
  O   6.15933169515540     -1.66868438199858      0.16837822249470
  N   3.95188041260863     -1.18244134126258      0.06374984598913
  H   2.71362780568949      6.35702158772207      0.18853010549294
  H   6.53107591463432      0.98906723075990      0.04665486534151
  H   3.80069136355914     -2.17842132129820      0.11818042701040
