22
Coordinates from ORCA-job 11620optt
  Br  1.75682885765320      0.29861245574954      0.35024141770215
  C   3.58197227058705     -0.03240991868043     -0.08273096856226
  C   4.10762668633415     -1.34596988741929     -0.00497031114060
  N   3.58436063793848     -2.56262581853212      0.34124936452694
  C   4.59489620661852     -3.40980896504174      0.22269054072045
  N   4.34952242903745     -4.74183864156905      0.51832249709998
  C   5.15068087593882     -5.84778043069404      0.52944161371663
  N   4.73706636847289     -7.02209099725991      0.86993171067144
  C   6.57312046030088     -5.77766294207712      0.14181554168304
  C   7.37137832618191     -4.78027373815726     -0.24637323741533
  C   7.11132056276374     -3.32921986400133     -0.43687360879243
  O   8.05788911404271     -2.62357212786971     -0.80064692052366
  C   5.81544967656651     -2.80074957941865     -0.20269175668156
  C   5.45280344426362     -1.44268179537363     -0.34068350775550
  N   6.14449032322683     -0.33579331126364     -0.70481648838915
  N   5.56775465244266      0.93049675379705     -0.76726358378938
  N   4.29993368349769      0.99521026191678     -0.44293684132258
  H   3.38924239443190     -4.88693805234830      0.79810437222862
  H   3.75132793683855     -7.00173197714990      1.12771756496220
  H   7.01012687536112     -6.76667343330320      0.20848430637949
  H   8.40337263338573     -5.03078032564803     -0.47012146208320
  H   7.11883558411553     -0.39471766565597     -0.95189024323528
