24
Coordinates from ORCA-job 11625optt
  Br  4.44278123493909      1.76006917740147     -3.65943146191504
  C   2.58566997981624      1.99641969169852     -3.32479338692294
  C   2.18847079855456      2.51304359628708     -2.07629428343562
  N   2.92033663767811      2.89299764094854     -1.02219414251327
  C   2.01316764516078      3.18381533619171     -0.04046482854748
  N   2.10635524047532      4.35378555914520      0.76293865980733
  C   1.11246575485226      5.24874590535025      0.36502883526690
  N   0.96633952581738      6.47815755767274      0.64981159173507
  O   0.21037561386250      4.60935648312889     -0.40451264818627
  C   0.58428497142815      3.19232036432169     -0.52172976677097
  C   0.77338606670479      2.66050355625844     -1.90628942971880
  C   -0.09208990090484      2.29060925376520     -2.89655949110172
  N   0.31151244840716      1.81034536993513     -4.08376080523499
  C   1.63357584771318      1.67652085476318     -4.27846708947015
  C   2.02483422076742      1.14781145502438     -5.62855626911413
  C   2.39391779211644     -0.31242070121206     -5.67354576542905
  O   2.29601126880745     -1.09898212664166     -4.77617298046230
  H   3.02463230293240      4.74112167116444      0.91184853270967
  H   1.73159908197680      6.78454105574764      1.24293312135877
  H   -0.14744676919112      2.64927051212000      0.08047366179092
  H   -1.16601316628470      2.38922886362136     -2.76473313923302
  H   2.86405911985418      1.69995558028033     -6.06124369234928
  H   1.17371129300294      1.26881394758460     -6.30624112554722
  H   2.76806299151348     -0.64903060455713     -6.66504409671637
