21
Coordinates from ORCA-job 11626optt
  Br  1.14821355799737      0.48844832951425     -0.08767870844754
  C   3.03146234522350      0.33228294467613      0.01732631858525
  C   3.83149855672433      1.46715640310267      0.04726098427252
  N   5.24813000136436      1.27976902981059      0.10066614791795
  C   5.90170865328183      2.48914055627870      0.06708923327276
  N   7.17008099644145      2.66192052403904     -0.21689809922953
  C   7.25756599829640      4.02633582063727     -0.25768852030100
  N   6.99374378274485      4.70616432626261      0.81085476785558
  O   6.00051886099537      5.66359321175424      0.41235619545462
  C   4.91598384897078      4.90340919874711      0.14477503610754
  C   4.84428362611920      3.54784847555104      0.11615968997731
  C   3.52852984999666      2.86423510808989      0.02685426224136
  O   2.42990883829164      3.43448468675554     -0.02445239890929
  C   5.88906446890473     -0.00246406896345      0.16231512008421
  O   7.09978435365931     -0.08015837991458      0.25463715543282
  C   4.97507712726873     -1.10238055865704      0.12318431763145
  C   3.60431409346546     -0.93043800909267      0.05331162274076
  H   7.22523077656996      4.50257647863145     -1.24411696545285
  H   4.01471534687609      5.48907092125636      0.00216333239604
  H   5.42087071362420     -2.08455377441460      0.17023815654166
  H   2.95431420318374     -1.79644122406458      0.03164235182839
