21
Coordinates from ORCA-job 11639optt
  Br  1.19908525599032     -0.51971556064239      0.67545262895465
  C   2.97792101056210     -0.03637858992492      0.27343827112183
  C   3.36742798029320      1.29200791359185      0.27912035640106
  N   2.60907785657729      2.41059188249354      0.56322328988844
  C   3.45901307949474      3.39865721087848      0.44369998964511
  N   3.17379442147635      4.77716956555490      0.72180672066571
  C   3.47966829859308      5.52369546537676     -0.45051765554704
  O   2.66524418834166      5.91980398880181     -1.22560359703504
  O   4.78628962264835      5.82944850610472     -0.66871250620091
  N   5.90877042196854      5.20828145020204     -0.06769292375770
  C   5.87786316012457      3.93453238671096      0.11667596737608
  C   4.78232570278048      3.01431341127831      0.08665843024291
  C   4.73011860478411      1.61799443922207      0.00191765310804
  C   5.73062239238240      0.60890820447120     -0.26761821599195
  O   6.92823870289717      0.87074415101553     -0.47192112962736
  C   5.22591614992166     -0.75597526074479     -0.27159071435217
  C   3.91635420617670     -1.05398623409841     -0.01333662590027
  H   3.82273296390139      5.07073667294024      1.45096874649401
  H   6.85358664958392      3.54876137007039      0.40020944395528
  H   5.94340239900736     -1.53914859154464     -0.48225955487242
  H   3.57654693249454     -2.08144238175767     -0.01891857456827
