23
Coordinates from ORCA-job 11648optt
  Br  1.13403987545198      0.41187035810393      0.04583978963731
  C   3.00762887443997      0.12220246660835      0.04516929401406
  C   3.85790684558710      1.19289630297846      0.04473528865989
  N   3.56411691421252      2.54978213168655      0.04467455734293
  C   4.73057957882167      3.27309992109990      0.04429236305225
  N   4.77465226368277      4.57622160296710      0.04417113407596
  N   6.07025198418664      5.08323205518170      0.04381283373896
  C   6.18653046246915      6.44118180519031      0.04376707610954
  O   7.24743964067117      7.04163032249397      0.04354119220160
  C   7.21078451680788      4.27899952952948      0.04360611906289
  C   7.11319767723606      2.93140029734545      0.04373927690834
  C   5.82199862462483      2.34659090683799      0.04408662042791
  C   5.27577433574513      1.04534920785857      0.04434516183109
  C   5.79915269405405     -0.26379777540108      0.04437142658971
  C   4.95589920519160     -1.33932026500151      0.04471220991362
  C   3.50247616140150     -1.23578710478980      0.04514648280076
  O   2.76352335417031     -2.23585325596099      0.04543480118569
  H   2.63579398410862      2.93572880048424      0.04480546402184
  H   5.20096654495272      6.92297211881177      0.04398320880772
  H   8.13114810579946      4.84065529019792      0.04336905239966
  H   8.01465542773000      2.33368821492111      0.04360316889312
  H   6.87344253332722     -0.41408365828729      0.04408392338475
  H   5.34304039532759     -2.35065927285613      0.04470955494037
