18
Coordinates from ORCA-job 11641optt
  Br  1.08814579450046      0.08544708207467     -0.06830515241177
  C   2.95736415178475     -0.08296192117488     -0.06889392765593
  C   3.56461326272867     -1.32302234898384     -0.07200344572574
  N   2.87281010517537     -2.47334791128871     -0.07500178175647
  C   3.59153572232999     -3.58758632384962     -0.07790706370267
  N   3.05066830881100     -4.83575554827403     -0.08145715111081
  C   3.97666435935247     -5.75184249876328     -0.08398956578489
  S   5.63940424674031     -5.18104312538274     -0.08198007424934
  C   5.02831975630448     -3.55147601204906     -0.07747188395649
  N   5.75406173489509     -2.47679135942342     -0.07453762837904
  C   5.03770415747355     -1.30332560869358     -0.07186514128163
  N   5.75411971331790     -0.21929819153232     -0.06937287752414
  O   5.08982145508419      0.98058512365539     -0.06665262520690
  C   3.71755780895458      1.13037661880255     -0.06587295904879
  O   3.30056794710954      2.26216657866077     -0.06281931271894
  C   3.72171261288097     -7.14451049439367     -0.08824020374386
  C   3.54353763880922     -8.33325842618591     -0.09236062687500
  H   3.36839122374741     -9.38135563319831     -0.09526857886760
