20
Coordinates from ORCA-job 11640optt
  Br  1.03093875537489     -0.01819829044683      0.07705666324525
  C   2.90588237962080      0.02555798911588      0.07898003395775
  C   3.61820887473830      1.20069200934693      0.07901203180818
  N   2.98104388840233      2.39687196803514      0.07830469158751
  C   3.74148654831962      3.48293566175438      0.07813090749363
  N   3.20192723566178      4.76078889593906      0.07750452713167
  C   4.12714244811450      5.64862551518054      0.07725609252788
  S   5.77177881967680      5.06069070882024      0.07777695066481
  C   5.15320810253269      3.45546507211385      0.07843007111254
  C   5.84366565210609      2.23638452743015      0.07910689385743
  C   7.25774520162297      2.18787930728532      0.07910340977798
  N   8.41085298862012      2.14768003352672      0.07854930170543
  C   5.07593049576377      1.03530645017260      0.07973643987995
  C   5.61487378979810     -0.22826728378183      0.08080828227733
  C   4.81041994257084     -1.40677169325745      0.08126567148924
  N   5.14250594162144     -2.63902600030715      0.08249849226840
  O   3.43411679855290     -1.20175639757434      0.08010760011317
  H   3.94010716183010      6.71349004405899      0.07676966492291
  H   6.68827390745546     -0.36216898948182      0.08134986997443
  H   6.15589106761645     -2.70217952793040      0.08325240420450
