20
Coordinates from ORCA-job 11649optt
  Br  1.12865104306667      0.22644551421956      0.03159080039267
  C   3.01239422356277      0.02183849226313      0.03234803004359
  C   3.80766490676820      1.16073138477256      0.03234385626338
  N   3.37617326316679      2.48109633647899      0.03189955203518
  C   4.43838736831244      3.32985281319052      0.03217035348181
  N   4.37655547934764      4.61296917265935      0.03214673404982
  N   5.61007926821331      5.21025938273288      0.03247098258984
  C   6.84060792191647      4.63761266251631      0.03258365083021
  O   7.86477924294540      5.29529807933094      0.03306230122767
  C   6.85877633857081      3.11514878175663      0.03257006259388
  O   7.88315767240014      2.49094756541573      0.03298645739780
  N   5.58776731903784      2.54814146798549      0.03249819606356
  C   5.20923876654070      1.16902516904090      0.03270067971689
  N   6.05240961868658      0.16375722266605      0.03313442621654
  S   5.37221131590072     -1.36319804661782      0.03347554187346
  C   3.56955079354544     -1.28120379048863      0.03291162280231
  N   2.89958668701125     -2.37739965996085      0.03299586764093
  H   2.41508831263199      2.77524030267173      0.03212208052329
  H   5.58789203269823      6.21774890221344      0.03256599788143
  H   3.51802842567657     -3.18631175284693      0.03342280637573
