25
Coordinates from ORCA-job 11659optt
  Br  1.06698465639307     -0.01384279684476      0.18384754295745
  C   2.97204746152018     -0.04309730997623      0.05804501603574
  C   3.63121535181086     -1.27691341225339      0.01314347741638
  N   2.93959434414937     -2.45373420989778      0.06906642751264
  C   3.63000337424627     -3.64719372828235     -0.06148119463430
  N   3.06783055671142     -4.84281022688636     -0.13111286328284
  O   4.18421643773777     -5.69906983910822     -0.25809085883468
  N   5.39472162914128     -4.97872159138900     -0.26355853277215
  C   5.00615417811891     -3.70915206531891     -0.12375227140997
  C   5.90529619695144     -2.52814415842143     -0.10657315628319
  C   6.89065494627389     -2.58175147119599     -1.29354090721894
  C   6.20349599080319     -2.73782902378237     -2.62428990503759
  O   6.57827561107689     -2.19855305994364     -3.63757577133365
  C   5.05296983275793     -1.26271604401691     -0.08215225085370
  C   5.69830959398261     -0.02761276899305     -0.08776420350156
  C   5.01872308863950      1.17896551168782     -0.03848551840414
  C   3.63239563467876      1.17211274608676      0.02816573206507
  H   1.93639107884678     -2.45390179875122      0.00041889569899
  H   6.53767317528109     -2.54161183839557      0.80004504729097
  H   7.51562485459384     -3.47223275294086     -1.15953558315794
  H   7.54362847784244     -1.70981427436177     -1.33578644359627
  H   5.33273797762300     -3.41520825001521     -2.63288540135981
  H   6.78127600821981     -0.01857275452037     -0.13228855785602
  H   5.55842547645368      2.11665124813975     -0.05156275044425
  H   3.06335406614587      2.09075386938110      0.06270403100378
