19
Coordinates from ORCA-job 11658optt
  Br  1.13647290296724      0.09965064181391      0.00864473758106
  C   3.02855396819139      0.09815737928457      0.01667726302053
  C   3.76635648314720      1.25558112195622      0.01837183485372
  N   3.26566119294487      2.55289090147294      0.01602635496233
  C   4.34048260401887      3.40456525411937      0.01770641811033
  N   4.55045403762311      4.66998792697827      0.01622420397923
  O   5.93981776366016      4.76134471277168      0.01914120837796
  N   6.55773669415671      3.50495154095189      0.02243207578379
  C   5.55386495610593      2.64914888908431      0.02165980489192
  C   5.20574122794097      1.27194992731614      0.02261190664394
  C   5.91375166072854      0.04225037232303      0.02608704417383
  Br  7.79209130389073     -0.00118392477851      0.03942489898859
  C   5.16245833170516     -1.15100786476054      0.02428620785081
  C   3.75957176715507     -1.10742208946631      0.01956416225373
  N   3.39876510430179     -2.40302968643908      0.01943860137407
  N   4.47379186197219     -3.21638719464051      0.02387306173060
  N   5.53292241062602     -2.46451809708713      0.02661586563927
  H   2.29061027279312      2.78950914856380      0.01300433853368
  H   2.47189545607089     -2.79243895946406      0.01721001125060
