21
Coordinates from ORCA-job 11650optt
  Br  0.89620359301220      0.09982589226736      0.12144456014864
  C   2.79654779869542      0.13337999680687      0.03220425581997
  C   3.46421782502655      1.30677113073448     -0.01261891048963
  N   2.77422146689986      2.52002477214484     -0.00876015548610
  C   3.40023556690894      3.71947727495781     -0.02419441716886
  N   2.82741329088524      4.87956381811202     -0.00738371671390
  N   3.90658538377785      5.74786445257934     -0.05580640225513
  C   5.13012607236084      5.13966957095756     -0.06326110760846
  O   6.22123257117713      5.65655339617977     -0.06968629670590
  N   4.76905677299460      3.77371180418906     -0.06391822000504
  C   5.61803603258191      2.60764740017307     -0.09356976443548
  O   6.82369746521545      2.75607545581808     -0.13469205435404
  C   4.90865881626963      1.35680499470435     -0.06882999062668
  C   5.68638366865069      0.18906714857125     -0.09606070058593
  C   5.23836412136199     -1.14956401660138     -0.07021466747484
  N   5.92746687142056     -2.24352467883914     -0.09858653912052
  S   3.47959402068072     -1.47532764536889      0.02108473730890
  H   1.76778729208247      2.52128545518858      0.02546805470334
  H   3.76694482276059      6.73596098752401      0.03417110244156
  H   6.75936615474005      0.33280565204545     -0.14214623052850
  H   6.91786039249722     -2.00807286214453     -0.14864353686339
