23
Coordinates from ORCA-job 11655optt
  Br  1.00316234524270     -0.31173505179340      1.18755348582385
  C   2.93049750001815     -0.08012715152688     -0.28360456091896
  C   3.65337073438360     -1.22241511708290     -0.24798439569570
  N   3.00825578818246     -2.48924391335288     -0.23345820050064
  C   3.75628241910601     -3.60502335406539     -0.07056285606437
  N   3.34017671356072     -4.83233951313924      0.08625158717411
  O   4.49493266395777     -5.60926092559299      0.17118965566464
  C   5.57614508255298     -4.80823895906570      0.06145206424860
  C   5.18712506138684     -3.53100963258804     -0.09253673033016
  N   5.82513329120204     -2.31154070699345     -0.25116731813032
  C   5.07799347278604     -1.14081145109775     -0.17649104631155
  C   5.69136740944930      0.07087283619537     -0.03533963054882
  C   4.95477600637958      1.30082368314354      0.00005892246125
  N   5.43770867733552      2.48505880311976      0.17194140969643
  N   3.55723477038859      1.14602540204521     -0.22970625813704
  C   2.80808549440293      2.30082535809385     -0.52160389056933
  O   1.69226152259813      2.28560874114509     -0.95524079893855
  H   2.04019283899379     -2.46733892335387      0.06731451745639
  H   6.53840408099907     -5.28756761773062      0.12055146081514
  H   6.80756871199787     -2.24251005485186     -0.04691395146330
  H   6.76871341898381      0.13283002366226      0.05246803417996
  H   6.44396390557074      2.41878816011398      0.28541813604339
  H   3.38064809052124      3.20932936471594     -0.31958963595499
