18
Coordinates from ORCA-job 11654optt
  Br  0.96315644098583      0.09291055470655      0.04822496066344
  C   2.83768745745585      0.07594754326635      0.05414858884867
  C   3.53854081460489     -1.12682577865048      0.05624252514552
  N   2.89899018583350     -2.31091341532767      0.05572720115907
  C   3.68273580898282     -3.37838332523941      0.05750176194642
  N   3.29559542164349     -4.69539422015003      0.05778288938831
  N   4.27825629309816     -5.45957916855633      0.05930629983296
  O   5.49614109991065     -4.65150898424972      0.06019882319852
  C   5.08917700719081     -3.39387785744462      0.05914317449949
  C   5.80630789316830     -2.21952596673356      0.05955296793134
  C   7.22334800556953     -2.17995000826022      0.06058601004794
  N   8.37404561571376     -2.16894359532552      0.06159716604482
  C   5.00858710004741     -1.01162877345623      0.05881079732678
  N   5.62825421955468      0.13481376093305      0.06026911999355
  N   4.87696616710886      1.23405592463626      0.05952067950958
  C   3.49443075223673      1.34951975863508      0.05643670470333
  O   2.98887024023320      2.46568854563894      0.05587029584785
  H   5.38490947666147      2.10559500557758      0.06108003391242
