23
Coordinates from ORCA-job 11661optt
  Br  1.03396872453493     -0.41971631860503     -1.06309133145478
  C   2.51910616345109      0.38827495478711     -0.19056595265531
  C   3.43761173456116      1.18580619863308     -0.93270055236576
  N   2.97414373184293      1.96678446081054     -2.04661325858001
  C   1.81065290192701      2.67860557977144     -1.63904261159800
  N   0.73673809311539      2.78500420885066     -2.38562677403418
  S   -0.59552929179680      2.93293083322291     -1.40933610885692
  C   0.31751200588394      2.88245339765028      0.07338313950945
  N   -0.16577446464650      2.50906467442540      1.33075786629590
  C   0.22070498322230      1.31832892979735      1.98548883336306
  N   1.22378186191619      0.55861936420566      1.94808714047723
  C   2.42553392207266      0.66468776642980      1.20274056238821
  N   3.45521667754285      1.09186948831355      1.86959861508103
  N   4.63418385239248      1.13478704791408      1.09651018978954
  C   4.56784846608829      1.66044809724655     -0.21168544064005
  N   5.42389341967388      2.50307895514894     -0.71442557104690
  C   1.62347566831471      2.93253216437356     -0.24263198435632
  H   3.72925901207481      2.51412218120567     -2.44262371168096
  H   -1.11765374777765      2.76476857065014      1.54045505233984
  H   -0.56097596300303      1.05239127705636      2.70093560613472
  H   5.35518207990509      1.57641092673878      1.64721470304764
  H   6.10852219791149      2.78073937823448     -0.01518350086228
  H   2.41459797079274      2.94000786313865      0.48935508970484
