25
Coordinates from ORCA-job 11669optt
  Br  1.00994082611008      0.29262801390572     -1.09693139055992
  C   2.90021673365678      0.05194203861227      0.23040538228943
  C   3.58272191869775     -1.15572701485704      0.22315872377978
  N   2.88877042757545     -2.36984736081547      0.42746098764241
  C   3.54865953884514     -3.41222360974309      0.21999831035798
  O   3.06411260907393     -4.66622328262501      0.46194151173752
  C   4.10676987371851     -5.61908238995855      0.25853421908449
  C   5.41531949140465     -4.83081724138909      0.34050294106455
  C   4.97755869822777     -3.49970733369811     -0.25988849391339
  N   5.66774890064829     -2.32086405961006      0.19108160070257
  C   4.98783295239716     -1.13293545028030      0.15204626168751
  C   5.70927652169191      0.08520457116650      0.09001483926777
  C   7.12854554443094      0.14305819819163     -0.04192328609118
  O   7.90935501911460     -0.81433130646671     -0.06745846508857
  C   4.98997337569557      1.33811448061184      0.09540288560257
  O   5.47697863721243      2.46334118322004      0.04635278279784
  N   3.60313707189523      1.20079856974690      0.16991472346968
  H   3.98069827084981     -6.08263924205954     -0.72479253442856
  H   4.01169098795284     -6.38776558213892      1.02371496584588
  H   6.23263292031444     -5.31487595321982     -0.19135728667147
  H   5.70367491630379     -4.67275010020829      1.38078856099436
  H   4.97485828423411     -3.58042229353392     -1.35985658976974
  H   6.66973521899053     -2.22962119376621      0.03879147869339
  H   7.52502820336932      1.16473171175221     -0.13741016550406
  H   3.09076305758877      2.07201464716307      0.12650803700911
