26
Coordinates from ORCA-job 11676optt
  Br  1.04908472710732     -0.25875499084029     -0.13861642281259
  C   2.93448369913789     -0.11379627996257     -0.04047898794702
  C   3.74115856206128     -1.23144462341954      0.11655395884341
  N   3.11253826277814     -2.46950281602503      0.36535010796631
  C   3.77190554317397     -3.52636417983548      0.21668397116200
  O   3.17917778914940     -4.72842121833726      0.54886223041727
  C   3.50069207034321     -5.79366261122541     -0.31350770854370
  C   4.99694398211420     -6.04166608836327     -0.42622183699005
  O   5.42223579040222     -7.03197422940468     -0.96540712729637
  C   5.83894743608960     -4.93282841007494      0.13743555583353
  C   5.21215967312756     -3.58855270561495     -0.23618178138142
  C   5.92309504592156     -2.38526021900333      0.37293732088167
  C   5.14671418877003     -1.12483316820597      0.10314519850770
  C   5.84170769902123      0.08568979214997     -0.01253255297759
  C   5.27825975971946      1.36582439934813     -0.21357044429322
  N   5.85735036880312      2.51815254344866     -0.33028401625342
  S   3.49520854431553      1.50103897988068     -0.39800283021814
  H   3.11022720668057     -5.61941900958130     -1.32467146036610
  H   3.02404307442499     -6.69005243038626      0.08115875283153
  H   6.86484221104975     -5.03267275691625     -0.21502784106069
  H   5.83308812129199     -5.02890081522018      1.22911410676165
  H   5.22420620841536     -3.47009246374928     -1.32804280324384
  H   6.93350037898022     -2.30368766233667     -0.03387545372476
  H   6.02569729847412     -2.55941702457821      1.45598078556696
  H   6.92714552197070      0.06161222453798      0.03800285092898
  H   6.86558683667650      2.38698576371551     -0.24980357259213
