23
Coordinates from ORCA-job 11677optt
  Br  1.11627577280488     -0.46894296466525     -0.28533838646569
  C   2.99869466326466     -0.26736699712944     -0.16617845390440
  C   3.82452651190403     -1.36903325450554     -0.14712839785631
  N   3.29677744727593     -2.65259334197004     -0.21103256179112
  C   4.11208720748169     -3.62396865091283     -0.20294628057854
  O   3.77229437252555     -4.91401898286750     -0.25954683037285
  C   4.94706587388638     -5.68250476817488     -0.23320281660002
  C   4.85215106419679     -7.08810389454887     -0.27702253773132
  O   5.82753327045213     -7.85466633878471     -0.25726912655974
  C   6.01252117981376     -4.80985880646479     -0.15867311145654
  N   5.49851624388250     -3.54152564649752     -0.13783754150309
  C   6.05772527139631     -2.30161627345803     -0.06867136252099
  C   5.25331141094429     -1.17811576496525     -0.06485652443996
  C   5.84431595473226      0.17133478859375      0.01476605920848
  N   7.11443561202325      0.45498977850294      0.10701915484221
  C   4.88585278907155      1.24423281019433     -0.01745234411626
  C   3.54210680993613      1.03117343351718     -0.10188718126511
  H   3.81939118021123     -7.47181209233040     -0.33270684780819
  H   7.06565164500036     -5.01664100782416     -0.11995540335855
  H   7.13525981503596     -2.27443641568141     -0.02047568941003
  H   7.68695838213154     -0.38403187124025      0.12794644055914
  H   5.28356718022207      2.24912560954413      0.03459990743225
  H   2.86298034180669      1.87438065166858     -0.11815016430335
