26
Coordinates from ORCA-job 11675optt
  Br  1.10382501000847      0.35472167917101     -1.30885525034706
  C   2.96707761965107      0.00682788928668      0.15301604103994
  C   3.65947021856577      1.15556301037936      0.49338888174269
  N   2.95915713353724      2.30602219469617      0.94750458992621
  C   3.20973237807550      3.38011021880414      0.35993927123877
  O   2.60805702246172      4.55290488918270      0.75768077825380
  C   2.77926321674513      5.56124043665220     -0.21462178893790
  C   3.77927665210626      5.02648932782878     -1.23168973550872
  O   4.21479712394990      5.65255715452359     -2.15787435241911
  C   4.12034661824215      3.61955839726491     -0.81867979711203
  C   5.62011369764025      3.46272728136144     -0.47073033723549
  C   5.84628997913164      2.38300408283462      0.59452403932812
  C   5.05782564375301      1.12625768001509      0.31170072077367
  N   5.74721175105141      0.08111706800639     -0.09845913673275
  C   5.07754487439875     -1.07940421977372     -0.39472286451029
  N   5.60419317856726     -2.18547661606208     -0.78690619117020
  N   3.68303202183111     -1.04557079833119     -0.25549314839301
  H   3.15673111539017      6.47465685664931      0.24882952382252
  H   1.83054269984278      5.78067486178697     -0.71256923817272
  H   3.85244893376141      2.90835409346046     -1.60549517714143
  H   6.02102428954181      4.41458388209591     -0.11206784392959
  H   6.15488653439447      3.21578380059521     -1.38787462408075
  H   5.53577035225249      2.77794732854008      1.56544562611837
  H   6.90264397816741      2.12327117577255      0.64238375199375
  H   6.60883717324058     -2.04744944566727     -0.84149480472815
  H   3.20290078369211     -1.88047222907338     -0.56187893381862
