21
Coordinates from ORCA-job 11678optt
  Br  1.16367415752244     -0.13716210142374     -0.02115782653424
  C   3.04614340922534     -0.10406024259729     -0.02505111192326
  C   3.77991655775934     -1.28157098855479     -0.02424022589613
  N   3.36888358598690     -2.56562721061507     -0.02136594594566
  C   4.49501651003080     -3.25420186652385     -0.02168702039704
  O   4.54152804883055     -4.59062953233388     -0.01936370035425
  C   5.81084887390771     -5.14763969502650     -0.01986550941938
  C   5.86492366623791     -6.57869529685524     -0.01730062107068
  O   4.90389504102866     -7.33614264753935     -0.01476116028679
  N   6.92809906218393     -4.43748231661542     -0.02256160351921
  C   6.89798990286019     -3.11524391485728     -0.02503705687598
  C   5.65290663863808     -2.46788267530676     -0.02464657148562
  N   5.16310824345950     -1.16839730167655     -0.02646084229329
  C   5.85867425875573      0.07610752494049     -0.02898716145644
  N   7.13922458343224      0.15496408924581     -0.02994223906167
  N   5.07263190101977      1.19228294194906     -0.03027484414424
  C   3.76380904548451      1.08775945897436     -0.02830663308470
  H   6.90348335846830     -6.94821358196194     -0.01790673584009
  H   7.85334414804561     -2.61070257271505     -0.02735427500764
  H   7.56656957457794     -0.75984174755128     -0.02843485728069
  H   3.20632943254448      2.02137967704429     -0.02929405812299
