20
Coordinates from ORCA-job 11688optt
  Br  0.97050328194812     -0.02467934988424     -0.30844190821490
  C   2.81368558093406     -0.10639006754841      0.00584514536620
  C   3.43986456504715     -1.29790175846161      0.17776341977606
  N   2.76509548190073     -2.50353476330510      0.21375339618995
  C   3.51466509740339     -3.53197534295789      0.06662143455020
  O   3.07462090356094     -4.75840381091279      0.18723777807605
  C   4.25121003590351     -5.67674786426587      0.34068883433605
  O   4.00773582590124     -6.83983889042867      0.50631706687506
  C   5.43825886110059     -4.87550978504288      0.22843693880320
  O   6.61849305808642     -5.26929935740573      0.29984543090643
  C   4.99899544805058     -3.48564212183765     -0.16789167185341
  O   5.54908281007081     -2.41355640289885      0.60551707756837
  C   4.88631291427687     -1.25409377404941      0.41611806122987
  N   5.55843379279433     -0.17185511686748      0.51277143168031
  N   4.87346474720722      0.98053214924290      0.37750992420181
  C   3.53608371691927      1.15653869264047      0.08158212427465
  N   2.97383348273945      2.29635897134548     -0.09366179019196
  H   5.22945285751597     -3.29056166844973     -1.22497075029696
  H   5.44874218610713      1.80128187317685      0.46424481247342
  H   3.64546535253215      3.05527838791063      0.00371324424959
