20
Coordinates from ORCA-job 11681optt
  Br  1.71687461540906     -1.64120976957496      2.22360211969403
  C   3.07167331033301     -0.94490970209336      1.10905131667923
  C   2.87483395051405      0.27064570285187      0.45840697482841
  N   1.69175518382158      0.90160687007288      0.62036253770517
  C   1.42928010749411      2.07633762473268      0.09838593285019
  O   0.16830614006047      2.57243420260112      0.33499994313813
  C   0.14601977548926      3.78346983995584     -0.25731303065137
  N   1.22812851683296      4.13041344441777     -0.84918804233298
  C   2.09208261590189      3.06000908641870     -0.65823914010078
  N   3.33586338139305      3.06006526302182     -1.16487568553660
  C   4.11481475761943      2.00646089105182     -0.99757919496497
  C   3.95994305992811      0.78636570802610     -0.34254497544822
  O   5.09573502744510      0.01637203303844     -0.50644492128548
  C   5.29540420407535     -1.20807496837862      0.03706286187299
  N   6.32249327152290     -1.87927107753596     -0.25842803990372
  C   4.25742351998342     -1.73486045938863      1.00778489890637
  O   4.48390474647003     -2.77037047599958      1.60439919617801
  H   -0.77347712248215      4.34128829619314     -0.18063873548871
  H   5.09347747223137      2.09458950489178     -1.46418540285206
  H   6.88346346595698     -1.35436201430288     -0.92961861328762
