20
Coordinates from ORCA-job 11687optt
  Br  1.21900426722733      0.44395317183061     -0.20096550002234
  C   3.03575892191271      0.05004316174615     -0.03793896088514
  C   3.50634215288819     -1.20483502597170      0.05080402993807
  N   2.70797205668403     -2.31327205557822      0.00570141976010
  C   3.31065859846644     -3.45106369396584      0.05305783268640
  O   2.69436861635131     -4.60147568667831      0.00470748654892
  C   3.67982067093508     -5.69995195251842      0.08756599948767
  O   3.26548503974211     -6.83645685937740      0.05277942757289
  C   4.95528355445933     -5.08146625778342      0.19088756341427
  N   6.12125553194509     -5.65330120302725      0.28728246815497
  N   4.66834415046953     -3.66186703504440      0.16006993528705
  C   5.53974002318909     -2.60352130241890      0.27834373971420
  O   6.73818832018035     -2.71398373839147      0.43146857731814
  N   4.91369339109294     -1.37716981640006      0.21133006591863
  C   5.68009808232927     -0.21217137626850      0.39451903015719
  C   5.12845191581966      0.98553004697146      0.28763120260281
  O   3.81217848825977      1.20449961019554     -0.01738287016576
  H   6.84533807251203     -4.94434740060964      0.35016486045430
  H   6.72016972291822     -0.36553252691988      0.62783422540576
  H   5.67984842261741      1.90138994020967      0.42813946665184
