24
Coordinates from ORCA-job 11686optt
  Br  0.96650788644879     -0.11274951924800      0.80563916415396
  C   2.71517730225743     -0.55192151780683      0.27520889189293
  C   3.30861410647831     -1.73528864712285      0.68426072135046
  N   2.87905103859448     -2.72978033053616      1.47645995127251
  C   3.90844366701635     -3.58479780556740      1.64106103560020
  O   3.68349488581224     -4.89408665246758      2.05591114031524
  C   3.29249790950449     -5.79973769310752      1.13228136756519
  O   3.21226176860027     -6.95895042565343      1.42909841541913
  C   2.92453931325651     -5.24921430204819     -0.23196453830299
  C   4.11406111690943     -4.64108351184186     -1.01302999270304
  O   5.26181708908043     -4.36470413958973     -0.23913819784337
  C   5.09169991508384     -3.33675170019825      0.74054441243919
  C   4.66378403275424     -1.99094270072648      0.19897364835165
  N   5.34501738474984     -1.21272114320457     -0.54943202010269
  N   4.72495336533776     -0.07210080618430     -0.90243177507265
  C   3.42730706788410      0.36045126013847     -0.56511966865376
  N   2.96193813595680      1.48781775210040     -0.99483914346262
  H   2.15279192795633     -4.49506002550501     -0.07503598762159
  H   2.50007798251578     -6.07895958568534     -0.79199630571936
  H   3.78135298579357     -3.73619096232406     -1.53216626501392
  H   4.45427250533127     -5.35562399613318     -1.76112997465702
  H   6.05561635272919     -3.30079314345689      1.24898295407804
  H   5.27360326802584      0.53273632778063     -1.48832307801159
  H   3.65011899192254      1.96445326838823     -1.57381475527389
