19
Coordinates from ORCA-job 11680optt
  Br  1.11783099582267      0.07532588495854      0.06474975256039
  C   2.99809350965400      0.05773079372028      0.06663721202136
  C   3.71639406991810      1.23954948803303      0.06679019205396
  N   3.10891127708400      2.44675163853155      0.06599557527776
  C   3.93248357318129      3.45967554864429      0.06597173794340
  O   3.51310037188322      4.76271468867198      0.06512594613867
  C   4.66776799017528      5.47876164710918      0.06534650501851
  N   5.75773349828111      4.80173127181997      0.06607181520297
  C   5.32737728351536      3.47975128478454      0.06657904848370
  C   6.00912561224987      2.26352368777994      0.06743289470598
  C   7.42110642525853      2.18267208628353      0.06788859935295
  C   8.62243851024180      2.13304074408344      0.06754963013175
  C   5.18061820006850      1.08681953206647      0.06770914538577
  N   5.78921097662032     -0.07522286474131      0.06861761302881
  O   5.01303211592127     -1.20710215388832      0.06885190359044
  C   3.63207390352362     -1.22183708853164      0.06786495450258
  O   3.11131299745878     -2.31206559972534      0.06813430205506
  H   4.56124714318682      6.55148480190491      0.06476294325504
  H   9.68314154595543      2.07869460849494      0.06792022929088
