20
Coordinates from ORCA-job 11690optt
  Br  2.09109876426199     -1.34208594262252      3.03250521464596
  C   3.23976370206096     -0.85230664004778      1.61714304473632
  C   2.87549263828063      0.19920045260487      0.77739214400350
  N   1.67276958043856      0.74443810999691      0.89432681607261
  C   1.13401983244473      1.71118586286866      0.19066100380278
  O   -0.19541480318783      1.91802711421938      0.44414164753235
  N   -0.68724799060774      2.93000941668530     -0.34784955070704
  C   0.29666325649972      3.34958517993612     -1.07130667955741
  C   1.51514012959858      2.64817399170670     -0.80108364760864
  N   2.67415531903517      2.92923527661858     -1.38314778124455
  S   4.08291854428274      2.24694738137057     -0.89371639470876
  C   3.90258704831149      0.61993690056051     -0.22823386159445
  C   4.93622158566980     -0.17954319928371     -0.53314785425689
  C   5.21307638330192     -1.41719718163739      0.19196264203672
  N   6.08458492302719     -2.27299575016385     -0.16452478250448
  C   4.41470725106484     -1.66925074640853      1.46595163368021
  O   4.77183080106647     -2.53755728844523      2.24024390008722
  H   0.15323535917359      4.15275380548452     -1.77867418061883
  H   5.64467996516479      0.11576139693766     -1.30058959320025
  H   6.53171771011235     -1.96531814038077     -1.03105372059634
