23
Coordinates from ORCA-job 11699optt
  Br  2.39050002560802     -2.74472715112816      1.62410293770530
  C   3.59042300754321     -1.93608690895126      0.41873337444181
  C   3.50838210192078     -2.03529938441649     -0.91380853137830
  N   4.52034219553550     -1.28976191372586     -1.61105068011336
  C   5.79790488306888     -1.40853267984511     -1.03430580148913
  Br  7.24733924924154     -1.66333231146301     -2.21996403597983
  C   5.91032057535393     -1.49417757012142      0.28864590908461
  N   4.67260716087414     -1.25574826476974      0.98734088590650
  C   6.93160827341782     -2.32472005654918      1.06061792290283
  N   7.92854607977346     -1.84191068429064      1.70238703201286
  N   6.47030196723928     -3.60799800619348      1.11462785269424
  C   6.11877919357976     -4.19107120367430     -0.03417360753656
  C   4.82933367380924     -4.64678564514353     -0.30681823547559
  N   4.44553927803453     -4.85887829190773     -1.55883688494651
  C   3.19010846971147     -4.68831967960981     -1.99864225479334
  N   2.44339912820247     -5.44509177124262     -2.70013340205640
  S   2.37112250860148     -3.02310685899114     -1.79544182160720
  H   4.49200486523131     -1.42294977521929     -2.61059680049263
  H   4.75690885813596     -1.39208750795188      1.98392427729240
  H   7.94758498535168     -0.83382551981061      1.56735044962171
  H   6.76739700024679     -4.12063181758641     -0.90986922645819
  H   4.11750974605336     -4.68692292794510      0.51839617126405
  H   2.91103677346527     -6.34503406946317     -2.80648553059927
