22
Coordinates from ORCA-job 11693optt
  Br  2.48831417621883     -1.03246138336994      3.57512653349658
  C   3.48561210826677     -0.79378702855089      1.97948120236890
  C   3.21910690598981      0.21281529937926      1.11033782689948
  N   2.20010912656165      1.07806473572376      1.45845065010336
  C   1.49431428465385      1.82297305477743      0.67256651815628
  S   0.15378932941301      2.71819786878461      1.42494082843616
  C   -0.37288082075256      3.34638922110477     -0.10280063574884
  C   0.41042948621021      2.93530599890469     -1.12346482071487
  C   1.49919025811751      2.09044738577915     -0.73523161710308
  C   2.51254525222158      1.66350758282450     -1.60143230273294
  C   3.67071292525877      0.98538581591200     -1.26778180328769
  C   4.09065306632287      0.40140607731869     -0.06311714884582
  C   5.48707662039729     -0.00970287960603     -0.03089452953991
  N   6.46453639467283      0.57459625033644     -0.63104987664567
  C   5.86573691978009     -1.30858900120697      0.64430788992549
  O   6.85769838490508     -1.93638427636958      0.38856959487928
  S   4.73113873999358     -1.99943946235044      1.82048150850076
  H   -1.23673813738452      3.98946562022898     -0.15841079419063
  H   0.24776398094807      3.22838783210313     -2.15302575313510
  H   2.40640367447794      1.95374156680915     -2.64200378268687
  H   4.37450693016134      0.85646160264450     -2.08503365450552
  H   6.13298039356595      1.45321811882278     -1.02901583362933
