23
Coordinates from ORCA-job 11709optt
  Br  0.96262707623736      0.08320665078667      0.16027250465168
  C   2.83497738847297     -0.04954194495864      0.51517242012262
  C   3.43759973781322     -1.25538769085562      0.52009821827245
  N   2.90886090595940     -2.55201803675692      0.34340467866408
  C   3.93981508146674     -3.34283673054210     -0.35877658752896
  C   5.26479844930883     -2.72972501876519      0.13727422211180
  N   5.94068956400790     -3.53667786065922      1.16252914708354
  C   7.29046232839320     -3.65614406466789      0.89036733797349
  N   8.23667752890925     -4.12354639057612      1.58600238424983
  O   7.52236839447145     -3.22316487021217     -0.37765446413464
  C   6.43458900500912     -2.46178140445047     -0.84051703414307
  O   6.73324436196344     -1.08095987615206     -0.76901057283231
  C   5.68194719098100     -0.43050598961034     -0.12724081312737
  C   4.85204949813742     -1.35253254386880      0.50898867362579
  C   5.39782040356612      0.92574529712201     -0.32666072921203
  O   6.01162083490968      1.80421188597366     -0.92282569442311
  S   3.80322989397762      1.41283886534869      0.54615641438531
  H   1.99159449635824     -2.56363856809208     -0.08211557155281
  H   3.86508558283303     -3.21587468377348     -1.44626662228670
  H   3.86057641406819     -4.40124992370569     -0.11274473253638
  H   5.70192021869120     -3.31066268322902      2.11685825012747
  H   7.87912563699743     -4.45577273080252      2.47628320705557
  H   6.25732000746711     -2.73598168755266     -1.88159463654625
