21
Coordinates from ORCA-job 11704optt
  Br  2.30263323380382     -2.96066789303082     -1.80213917609712
  C   3.50150265962796     -1.56707358397147     -1.30831878157772
  C   3.57125311701126     -1.08855962338660     -0.05426229277612
  N   4.49444373655737     -0.14854472422907      0.38504240317144
  C   5.68282824597051     -0.23292499169220     -0.14836430608993
  Br  7.11134998635492      0.53228471370819      0.93769059874812
  C   6.03453719106733     -1.00452722824430     -1.26108163441791
  S   4.71951788063605     -1.05351042727541     -2.44871700864812
  C   7.10605209847463     -1.92123447444214     -1.31953533264919
  S   6.74081403178061     -3.59522166224870     -1.65752450992469
  C   5.74950551921564     -4.13274179801450     -0.23292523838323
  N   5.10097984501043     -5.21783366616110     -0.22411995729415
  N   5.91424303241066     -3.34158114373262      0.90843375353037
  C   4.99789595751597     -2.80407447537093      1.57122063044555
  O   3.64760544843328     -2.95439334114838      1.38922665147626
  C   2.91826170025049     -1.82220997152761      1.06947975230963
  N   1.86148441331672     -1.58773617452576      1.69909325588126
  H   7.96253420335352     -1.73969662083584     -0.68351420310248
  H   5.14665740281991     -5.66490106814560     -1.13934966343223
  H   5.24915437639909     -2.16389511776488      2.41495919669588
  H   1.41374591998976     -0.76995672796018      1.29070586213439
