23
Coordinates from ORCA-job 11718optt
  Br  1.42225019892939      0.26120241864575      0.10195802129725
  C   2.78547597787464     -0.95477442919243     -0.45283108127422
  C   3.42837834246189     -1.75039693924531      0.47175649413312
  N   3.03744125268242     -2.10021598512462      1.74410899739485
  C   4.02257232978058     -2.85773671430194      2.30991263805889
  C   5.04467803287410     -3.02707837423930      1.40657402367629
  C   4.68810003264452     -2.32088215205201      0.21112131883789
  C   5.38883911518739     -1.90713273823398     -0.96869341479582
  C   6.77189650646793     -2.12444878187841     -1.16805397435658
  N   7.53920020556613     -3.11121671768511     -0.81131604200381
  C   7.13104993038076     -4.34217466695786     -0.38181551615407
  N   6.64953390634845     -4.74657000464426      0.72564562292737
  C   6.22017901968686     -3.86146300907260      1.72043223673826
  N   6.68809224689685     -3.87843383269177      2.90745035100987
  C   4.73056732489768     -0.98130206015736     -1.87733919900334
  N   5.14583717270441     -0.48833758931370     -2.97983442524626
  O   3.43513652790437     -0.56635066507200     -1.57473701177673
  H   2.19544012562868     -1.77928411654939      2.18684947682610
  H   3.94457446945765     -3.25372418119287      3.30800599945780
  H   7.29865685358622     -1.31983309149027     -1.68646765747679
  H   7.37381996000102     -5.13342636955124     -1.09808677859525
  H   7.42273379413893     -4.58546333578045      2.94856316781066
  H   6.04654667389902     -0.88895666421883     -3.21520324748549
