22
Coordinates from ORCA-job 11716optt
  Br  14.37185671685618      1.55949096606829      0.15762854136339
  C   12.70391841406516      2.40127900552744     -0.03743251754664
  C   11.51542989325654      1.77726911839955      0.20449537216941
  N   11.28476665543146      0.47045605539176      0.54326011149768
  C   9.95557505233424      0.36594629204577      0.55579447279502
  C   9.31440296835416      1.57052309194765      0.22955219247613
  C   10.29967945370306      2.53269704565921      0.00719457704326
  C   10.27987351900300      3.88990872311255     -0.42531745468401
  C   9.19002536985877      4.70818500554754     -0.67936440343068
  C   7.79919006213558      4.57046439431415     -0.30838713647267
  N   6.88275497734158      5.18726471714310     -0.96239510873224
  N   7.47113304142707      3.92140647798842      0.91707349987091
  C   7.55882592916316      2.68716210317884      1.07959505531058
  O   7.94463674108552      1.78122906093057      0.12731215392480
  C   11.59230085858762      4.48901592409303     -0.72647830052013
  O   11.78663479365499      5.62306005215228     -1.15497324429562
  N   12.71021161412140      3.68896126613825     -0.47637522308438
  H   9.46350906583243     -0.57196367624112      0.77909492453182
  H   9.40299318358137      5.61665948441444     -1.22685541607484
  H   5.99076183474679      5.05799963299803     -0.48630120021205
  H   7.32551882378058      2.23615017464626      2.04383224134887
  H   13.58900103167921      4.14683508454398     -0.66595313727862
