24
Coordinates from ORCA-job 11726optt
  Br  1.26091146012626     -0.39590564155197     -0.95323419087364
  C   2.91730502511391     -0.11005956210078     -0.07259783728064
  C   3.53148499212370      1.10929092018024      0.00618171964420
  N   4.94931213501276      1.09999368288920      0.10246975121492
  C   5.49929156130577      2.45278924734960      0.05881342205559
  C   4.27221378744696      3.29949001460164     -0.03997813760448
  C   3.12443397947191      2.46588650922188     -0.02125012713904
  C   1.82400800092154      3.06036886649018      0.18728738070241
  N   0.72675999070689      2.55191499138252      0.58269177711000
  O   1.76090708246877      4.42495349846110     -0.04123044540008
  C   2.88344177342453      5.20663819766227     -0.12541731029165
  C   4.14425431263169      4.68351341929272     -0.09040676722162
  C   5.77051326633514      0.00782893187465      0.07532405197559
  N   7.04871955137466      0.01964634711520      0.08215559898875
  C   5.06930540690462     -1.33590502882030      0.05784222897112
  O   5.66425402263773     -2.39232663558739      0.14265218636129
  N   3.71852624313826     -1.26767992155762     -0.04313943644932
  H   6.17458393820848      2.54445747907628     -0.80495420837858
  H   6.09854377722630      2.64395829448632      0.96020338778220
  H   0.84844943103244      1.55750915098042      0.73696999171361
  H   2.63842317558163      6.25410139701430     -0.19700112011047
  H   4.99626596440836      5.35016200710338     -0.11218011944118
  H   7.40504090463676      0.97157708597301      0.10452709956454
  H   3.25205021776085     -2.16220325153689     -0.00172889589350
