22
Coordinates from ORCA-job 11724optt
  Br  0.80674959541674     -0.01171407912392      0.21440524233977
  C   2.69447861859408     -0.12136399014909      0.09031282766954
  C   3.38377101437405      1.09855339358767      0.02874492371077
  N   4.81112157156614      1.06246859987069     -0.04685695832735
  C   5.44706090687717      2.37587336450057     -0.10972622403616
  C   4.22473772092089      3.22663578751363     -0.07493091122988
  C   3.05918462892689      2.47906638026486      0.00601601024529
  C   2.03310779722457      3.46076391681310      0.02182914816854
  N   2.53840358291655      4.68490515386132     -0.04235705820967
  N   3.87266926517492      4.53449529306834     -0.09942983666523
  C   5.44753443625497     -0.11437058619963     -0.06939623293912
  C   4.78235634769435     -1.32745519692641     -0.01758826814673
  C   5.72079454067121     -2.37280611062862     -0.06187445537239
  N   7.00371726577888     -2.05720126326806     -0.14076290588470
  S   7.14254721344311     -0.39944135236951     -0.16743927003690
  C   3.29778160949555     -1.40163125171746      0.07216376624237
  O   2.72766273196684     -2.50733472372091      0.12163101129685
  H   6.04732601508226      2.46855090888424     -1.02879790578620
  H   6.13031873717811      2.51729458800451      0.74296124379637
  H   0.96615027945533      3.32322419668596      0.07649670717790
  H   4.45095604827472      5.35097843208758     -0.16273481124320
  H   5.43757007271265     -3.41749146103888     -0.03466604276989
