21
Coordinates from ORCA-job 11722optt
  Br  1.19703759503667      0.19084652119206      0.06415583966111
  C   3.06916882574156      0.03796211758330      0.05573427797540
  C   3.85180544705738      1.15584102667036      0.05286215706551
  N   3.55820348809377      2.51740851971039      0.05430572637773
  C   4.72421274419333      3.12902353567736      0.05174147850894
  C   5.85025779922831      2.22728392069155      0.04873924404397
  C   5.26178168353944      0.97969116614066      0.04908582712101
  C   5.91996738564989     -0.24559281645403      0.04761651703038
  N   7.31279757912194     -0.23938389604155      0.04538730622911
  C   7.89426177066912      0.90758615783880      0.04519433987027
  C   7.28237531791188      2.27564695561803      0.04694214228299
  N   8.00117113578474      3.34947457355386      0.04705305495595
  C   5.13105777155982     -1.38495355861061      0.04893115001654
  C   5.71801580681708     -2.68082165616242      0.04680318455341
  N   6.13154193826168     -3.75524718166261      0.04546815566017
  C   3.66492194670273     -1.30292744633056      0.05272207165123
  N   2.87382949829299     -2.33842744335963      0.05364892847853
  H   4.77799701299175      4.20988499267241      0.05202588166355
  H   8.98603378712509      0.89889102821672      0.04377157221101
  H   8.99111491272556      3.10199617585974      0.04584044717434
  H   3.42244655349524     -3.19818269280385      0.05097069746886
