23
Coordinates from ORCA-job 11733optt
  Br  0.91565083520130     -0.31923868263865      0.32072866578626
  C   2.77617882927256     -0.09299246323151      0.16627896120564
  C   3.30183239317194      1.17508004802596      0.19075250192610
  N   4.70466390614341      1.28139648989974      0.11752797339916
  C   5.18178083263784      2.67239188925829      0.02532536668558
  C   3.93355481464283      3.40423236818016      0.40495036998222
  C   2.83279105835971      2.50548145915906      0.29787160886320
  N   1.60800366238876      3.07134448634435      0.14574865332946
  C   1.72041214759967      4.34871546858683     -0.00001704095214
  C   0.51982643652537      5.24172320517470     -0.10433438625114
  C   0.61542907371694      6.25173295178532     -1.16324794105881
  N   0.67739824584694      7.05876133341777     -1.97504597102906
  S   3.36877240299693      4.99961802545431     -0.01161162559540
  C   5.45551587156836      0.17512433811921     -0.02379135916914
  N   5.01543210317015     -1.02777709963614     -0.06478879927754
  C   3.61703551355679     -1.26085352233706      0.03310632005707
  N   3.15351484611218     -2.45990751685873      0.00308952944204
  H   5.51648668619560      2.88879710753003     -1.00511306494310
  H   6.03492972689486      2.81354982783654      0.69466803145441
  H   0.33961287273813      5.77606128903187      0.83412299966151
  H   -0.34440863840688      4.60587074974339     -0.29883913783295
  H   6.52670684866360      0.35398537051454     -0.10394308339725
  H   3.94687953100291     -3.09009712336008     -0.09443857228613
