23
Coordinates from ORCA-job 11730optt
  Br  0.89503751870494     -0.04154076137474     -0.37155554402081
  C   2.73137207651947     -0.06588571293382      0.16257776697237
  C   3.39511301619245      1.18417840469082      0.30200837383501
  N   3.29426379542439      2.44338884042613     -0.29494319264199
  C   4.54880239719306      2.90830459125149     -0.40145444758107
  C   5.54417504151089      1.98291463273632      0.13387466748482
  C   4.71342086858374      1.02454827655553      0.66985320326604
  N   5.37628365762867     -0.13493195930593      0.68835648247428
  C   6.62179260796821      0.08391292737527      0.15611325571564
  C   7.03464359272077     -1.23334936282158     -0.23848686622089
  C   5.92944649632949     -2.09509615597939     -0.10322579826771
  C   4.82309852672312     -1.34554905874687      0.39427687980471
  C   3.39608202615783     -1.29922446088320      0.23875158395358
  C   2.69209606729411     -2.61329023468718     -0.01860055046043
  C   2.53882780656291     -2.92474803255440     -1.44157059044104
  C   2.41898921864938     -3.17922860799642     -2.60654832030521
  N   6.78991277262810      1.40055483388501     -0.15613282758700
  H   4.71776471914981      3.86959968293224     -0.86840302129417
  H   7.98520273592162     -1.50175356974600     -0.66995352744489
  H   5.90602098049451     -3.13191304940947     -0.40083959475752
  H   1.70355591576824     -2.60873747305010      0.44423634276451
  H   3.26758796573998     -3.41363596516655      0.45197358448621
  H   2.31651019613422     -3.37751778519715     -3.64530785973443
