22
Coordinates from ORCA-job 11734optt
  Br  1.31450602083171      0.37790994635290      1.00457233056697
  C   2.77785293168977     -0.38893102405217      0.07480919764334
  C   3.68028192871165     -1.23841126224713      0.73877065395500
  N   3.78892561476281     -1.51924711191115      2.05984993257617
  C   4.91538408270270     -2.21462068444726      2.16737717009080
  C   5.58001039160627     -2.44433989232523      0.93559995543343
  C   4.74220102926784     -1.81749699402595     -0.00391827437342
  N   4.86459275403567     -1.48414909877048     -1.36047468645248
  C   3.92408411546508     -0.57832289584936     -1.87441618428738
  N   2.93478278409828     -0.07027359821461     -1.19898577736166
  C   5.85043305432973     -1.92770560747071     -2.19231993212991
  N   6.56055418003856     -2.98458477989396     -2.13790927089369
  C   6.45814699838466     -4.16042727390048     -1.43292024522572
  O   6.12393059312517     -5.20001126049304     -1.96753091469159
  N   6.98431541228468     -4.18735508904456     -0.15264419980301
  C   6.78903292632528     -3.26444521483427      0.90516080658915
  N   7.57558669959488     -3.27822206369543      1.91154920989433
  H   5.26708712236418     -2.59369428177145      3.11649940085699
  H   4.05475211155577     -0.32930568690108     -2.91777476410777
  H   6.02021479876725     -1.24920324282324     -3.02712629424653
  H   7.12257942359890     -5.13645705482801      0.16407515108669
  H   8.32374502645903     -3.95270582885330      1.75775673488030
