23
Coordinates from ORCA-job 11735optt
  Br  0.95459493446046     -0.06877582288324     -0.11004572398427
  C   2.83278232020899     -0.03320258479497      0.04847894152186
  C   3.47288572998125      1.20385200461599      0.12273429733557
  N   4.89322786769411      1.16439092535415      0.27646374175853
  C   5.52370499526986      2.49339090020930      0.16116692257970
  C   4.30959414326794      3.34533639717545      0.35952485804832
  C   3.15423831540162      2.56762383513483      0.15361259531799
  N   2.07407908380318      3.36982751615660     -0.19229526649142
  C   2.59001378762417      4.55199999427603     -0.32279884181291
  N   3.95316535622918      4.61048184367602     -0.13349055936225
  C   5.50647528568261     -0.02561745030202      0.24313711428295
  O   6.88061419345457      0.12702123828529      0.29902001754272
  C   7.65511691584024     -0.99174259015084      0.30348467770097
  N   8.91046126851231     -0.93687648308424      0.32760541657916
  N   4.96575237096756     -1.17265570378860      0.17263971113184
  C   3.53731062405026     -1.27223148343888      0.07482814595536
  O   3.03629962634540     -2.38884876037015      0.01656865705666
  H   5.97513325314735      2.61613330534892     -0.84151614998645
  H   6.31619155968535      2.59381710111054      0.90217606404338
  H   2.02594811890350      5.44375189737889     -0.55892005480543
  H   4.41308827096625      5.47062671423283      0.11151976861015
  H   7.09143526268585     -1.91792418832844      0.28704869072178
  H   9.22088671581786      0.03562139418651      0.33705697625577
