21
Coordinates from ORCA-job 11745optt
  Br  1.51809916291185     -0.95250361752705      0.17858002764086
  C   3.34897473485328     -0.52260957364959      0.05060363605193
  C   3.78964231760843      0.80208871543667      0.02623468112658
  N   5.18459839861333      1.04558304447360     -0.07717361618229
  C   5.48475274430674      2.48471571612884     -0.09041580521472
  C   4.11285058913329      3.08234210069875      0.02311150903178
  C   3.16404996262420      2.04376929836132      0.08393405433182
  S   1.60029888373377      2.76226361997082      0.20843818503198
  N   2.17175907412916      4.33946458887825      0.18161590141660
  C   3.50399302849878      4.32341010274195      0.08209587686213
  C   6.20322530707809      0.11911902071715     -0.17710593140327
  O   7.36844465850236      0.47614511205818     -0.27645126513060
  C   5.69610767473405     -1.24148908503109     -0.14440408262450
  C   4.32478075363797     -1.50711210310207     -0.03399230818385
  N   4.28011517000725     -2.85648266190369     -0.03377693829886
  N   5.53735946646346     -3.39296482343665     -0.13573346360362
  N   6.36698313651386     -2.42112108532303     -0.20059437307222
  H   6.01530702070797      2.73763132235712     -1.01261366945227
  H   6.15446414773123      2.72425007703888      0.74026899147168
  H   4.01698605981586      5.27834909106108      0.05335624626263
  H   3.47520770839502     -3.45384885994945      0.03502234393821
