24
Coordinates from ORCA-job 11757optt
  Br  0.68157668441203     -1.61814451017820      1.08468227823554
  C   1.39338285284289     -0.12323489429299      0.18371259126027
  C   1.39960775852458      1.13752602580531      0.71774500792552
  N   0.89691076302575      1.38727216443327      1.94722798213216
  C   0.69094346103807      2.61384245398504      2.44071884677997
  C   0.67220801750375      3.78275735727443      1.68465855521562
  C   0.74517294997544      4.02033650831725      0.21134077964630
  C   1.93599743959346      3.36406542068701     -0.41195367457644
  C   2.16260720830358      2.07792023126559     -0.16689664766934
  O   3.30436538463821      1.51343530137591     -0.76902286655212
  C   3.20934790392238      0.30266532870774     -1.36021983866213
  N   4.05450622937197     -0.12430463682988     -2.21228230436607
  N   2.12538188954925     -0.42567756398490     -0.97381003240528
  C   -1.25385479207883      4.89271759557055     -0.95140231859361
  N   -2.01737517193791      5.83848059368851     -1.13493074077303
  C   -0.48844455957616      3.88169020287004     -0.64973909061510
  C   0.80719048536394      5.04167995742247      1.28892161251449
  H   0.50758916674684      2.66482076204360      3.50951628110906
  H   2.60894330839306      3.89817612204492     -1.07668085488022
  H   4.71806070427666      0.61485162251992     -2.42075258101408
  H   2.01471900461687     -1.32060387030375     -1.41771233352081
  H   -1.79979113025481      6.37372664732875     -1.97577417483069
  H   -0.74454791102204      2.90589887761587     -1.04931720571963
  H   1.12850235277098      6.04110230263347      1.51897072935962
