30
Coordinates from ORCA-job 11754optt
  Br  1.11401190541609      0.03289750706226     -1.19799870701989
  C   2.81536906747220     -0.10439439051715     -0.33015633650590
  C   3.42503138484248     -1.35471527265371     -0.30070292815545
  N   2.71937153573245     -2.56302826896183     -0.45869487040683
  C   1.77538707121244     -2.86881202115650      0.61808201609914
  C   2.37110292352801     -3.09272652076863      1.98821631596150
  C   2.74599085157541     -1.90022634341608      2.80883546166343
  C   1.54935266650902     -2.72503752341673      3.18971996894516
  C   3.54719821934655     -3.69220954574489     -0.88014166592632
  C   4.82316804961350     -3.79476008960624     -0.08616884873553
  C   5.36264823149219     -2.66389640129472      0.38325423799970
  N   4.73354417044162     -1.44380706267245      0.23934813968536
  S   5.71242208937953     -0.03664312879050      0.19931101431936
  O   6.04818213061060      0.12949473076982     -1.19572920691798
  O   6.81851171257451     -0.28947144951296      1.09417213312123
  C   4.62121681649480      1.08437983394810      0.80008482320523
  C   3.33060947607748      1.05688831417540      0.23346569180318
  H   1.20337496575153     -3.74939312392027      0.30804764756849
  H   1.06790750697254     -2.03839023296215      0.68173346638348
  H   3.01198958680431     -3.96065063238637      2.08530887854292
  H   2.58177201104274     -0.92427587010732      2.36694174883161
  H   3.63253512166307     -1.96918320974065      3.42314723218855
  H   0.56925604384996     -2.30147484433538      3.00762071127251
  H   1.61156265983724     -3.35126815380089      4.06934062374719
  H   3.77362573972218     -3.56361571010367     -1.94414365507686
  H   2.94954265683215     -4.60241518743834     -0.79056536747531
  H   5.30895782879938     -4.74629772687141      0.08066948658991
  H   6.30760519920578     -2.61162665311112      0.90710417997058
  H   5.03545211322881      1.87747752878675      1.39959426019833
  H   2.72030026397134      1.95118144854766      0.22730354812318
