29
Coordinates from ORCA-job 11766optt
  Br  1.80452387388311      1.45938770184626      0.02329040349354
  C   3.49040554824680      0.57685052501416     -0.35225993755748
  C   3.48074973579652     -0.73520809099596     -0.75071791483927
  N   2.20270138258220     -1.38956017605821     -0.88837901896028
  C   1.80420985386678     -2.36036523311901      0.15114698138229
  C   2.90830161595886     -3.40441239412731      0.21034816214712
  C   3.03014593747008     -4.90065207888141      0.48560281309179
  C   4.55293169077999     -5.02359193334012      0.15042920276377
  C   5.10885051457886     -3.54826084385960      0.26070457145860
  C   5.24660525370205     -2.74930579876064     -1.13301752113728
  C   4.80419158877788     -1.30186883914423     -1.07024383212623
  N   5.88893894434230     -0.43541085705943     -0.99936231978572
  C   5.70537707719381      0.78697965317688     -0.60601683855034
  N   4.55127181325610      1.38208197898712     -0.21120022265312
  N   4.03612670843126     -2.93897866920716      1.02786045316939
  C   6.39045851092067     -3.54341284837526      0.97331485993485
  N   7.41170092806062     -3.59275865684822      1.49495235243886
  H   2.16817744978021     -1.85561544417226     -1.78952622885299
  H   0.84217302936521     -2.78416292378333     -0.14197328380731
  H   1.67487224278030     -1.83223436724099      1.09810179708745
  H   3.18210594436065     -3.39739599088735     -0.84662859186317
  H   2.41980623670283     -5.51783227536325     -0.17469023549264
  H   2.82841098574505     -5.15741590583854      1.52465682685341
  H   4.70636506975492     -5.39822004532812     -0.86303416472027
  H   5.07592643192832     -5.68275151512542      0.84028106951161
  H   4.73535448066964     -3.34000936944422     -1.89767643629152
  H   6.29811498409874     -2.71984056376453     -1.41533595109748
  H   6.58599832608725      1.42552407578985     -0.57559889732660
  H   4.12920384087891     -1.92855911408965      1.00997190172905
