23
Coordinates from ORCA-job 11765optt
  Br  1.06519320719412     -0.19388954267990     -0.05430890736871
  C   2.95975144895272     -0.02253548401549     -0.03716962885381
  C   3.59680260125120      1.24360923435889     -0.03105027175272
  N   3.27806276040849      2.58514445330831     -0.03029820404542
  C   4.45546850888379      3.35029972844900     -0.02208640387460
  C   5.54232898571179      2.48883371277934     -0.01734191030466
  C   6.97436779690440      2.20023543141705     -0.00941577720877
  C   7.14808517612774      0.81744929637851     -0.00991835195589
  C   5.86608956012512      0.14935818614009     -0.01803693824288
  C   5.22663871117651     -1.11569094898235     -0.02209338324760
  C   3.77697716982808     -1.13012990107842     -0.03217029349201
  N   3.35764991469287     -2.45149284162766     -0.03596644208384
  C   4.43196557997896     -3.33456711637658     -0.02586118655239
  N   4.39359134081520     -4.60870529322645     -0.02322798334924
  C   5.68384113010293     -2.47153918656152     -0.01797686008303
  O   6.83442938421201     -2.91418747339701     -0.00937192799664
  C   4.96133365880098      1.20746013294152     -0.02257825911013
  H   2.34909110628791      2.96556053365184     -0.03401255584080
  H   4.37232370887546      4.42497714920594     -0.02011035553808
  H   7.77986621075461      2.91962200993587     -0.00404718259512
  H   8.10715539673398      0.32013178831288     -0.00489948176929
  H   2.39100080499179     -2.72723474172466     -0.03815379109011
  H   3.42798583718929     -4.93870912720919     -0.02990390364425
