22
Coordinates from ORCA-job 11775optt
  Br  2.05203442305514     -2.23048023118167     -0.19891707412752
  C   3.28168336622172     -0.79898691213742     -0.11801156438864
  C   2.80203026792137      0.53349342570210     -0.13701021390771
  N   1.49519440023200      0.71850923977041     -0.26168028894064
  C   0.82730253573459      1.85735089593122     -0.26667191420511
  C   1.22584803984467      3.19635261853054     -0.11766506106587
  C   0.37991748772462      4.30530688547091     -0.09484420676048
  C   1.17078926736802      5.45989530577522      0.07930428205824
  C   2.47787289058717      5.07299901199961      0.15841337883789
  N   2.53041514546602      3.68643356965569      0.04048667576011
  C   3.76141204118176      3.03300926914147      0.05630562342968
  O   4.76031171968597      3.72197812983091      0.15302289421483
  C   3.86001928374165      1.54948701220471     -0.02401412388863
  C   5.14521776629505      1.13144243731966      0.03685283751115
  O   5.56121563893900     -0.12952239770252      0.01370255257166
  C   4.63521526762261     -1.19682247709509     -0.04977536580547
  O   5.12458109243559     -2.30107556923727     -0.04060074752051
  H   -0.24758239830790      1.75269900824078     -0.39318972923245
  H   -0.69204225758720      4.24978577665378     -0.19192375759216
  H   0.82209552093587      6.47848347977660      0.14287581370169
  H   3.38924469806053      5.62556905295564      0.28495093218482
  H   5.95822380284171      1.83709246839470      0.11638905716513
