30
Coordinates from ORCA-job 11772optt
  Br  1.12485484163069      0.04856419132963     -0.63811235369130
  C   3.00696094808113      0.04611739325822     -0.41322394574604
  C   3.69761839002546      1.25085999621901     -0.21053339357978
  N   3.21570767147995      2.55239431197554     -0.44937006904987
  C   4.16556944481781      3.45658961727874      0.19981216787266
  C   5.51411528219926      2.70647942193633      0.09568815160779
  C   6.48262425032619      3.05374809991077      1.22493312086957
  C   6.96600859097561      4.49894681233651      1.15299447367243
  C   7.66331520382333      4.77200919169288     -0.18388228411037
  C   6.76540492704345      4.39319412225055     -1.34559589217262
  O   6.53548345101384      5.17477297987688     -2.24376691782978
  C   6.18265157211603      3.01147338177488     -1.27571912963576
  C   5.03814341192737      1.27913176020396      0.12255033290666
  C   5.77559765820914      0.09905449289302      0.19756144397491
  N   5.03076664753705     -1.09123826546983      0.08265013403975
  C   3.67444277804634     -1.20018641034961     -0.24235247963206
  O   3.18401459986479     -2.32970145625783     -0.34765740445154
  H   2.24222913299872      2.68661892013513     -0.21084637114387
  H   3.92564199694219      3.60079701147473      1.26362584381468
  H   4.17800577930988      4.42983753028524     -0.29737860686100
  H   7.34622710319692      2.38138280429077      1.15893357586372
  H   5.99293301212931      2.85249463573005      2.18052984036175
  H   7.64824407818301      4.72005547975160      1.97693827996992
  H   6.11267452586479      5.17670948825529      1.25917214271968
  H   8.56267045824060      4.14745538682863     -0.24195073939100
  H   7.95774755082680      5.81508571410829     -0.29637591965310
  H   6.99274123174060      2.28057153095464     -1.39891977429726
  H   5.46255352450070      2.87071717640029     -2.08200472571934
  H   6.74826030318361      0.01180440013850      0.66057407272969
  H   5.50079163376528     -1.98073971921290      0.07572642656149
