22
Coordinates from ORCA-job 11783optt
  Br  1.04096185618201     -0.32998248382320      0.55071359574869
  C   2.90909036934221     -0.23871093952077      0.27352783373758
  C   3.69260398958882     -1.37764759407369      0.35188008413163
  N   3.55936640801008     -2.75028905509800      0.56394188057785
  C   4.75426790675559     -3.30113081144063      0.43106080358235
  C   5.78854023728878     -2.31079609211668      0.11283235608893
  C   7.06402509235693     -1.87394555971052     -0.23466156793153
  C   8.32710248977044     -2.67142085637871     -0.39831459266524
  C   9.48186318281219     -1.86029567971429     -0.77734494388501
  N   10.37636782506130     -1.20756734653710     -1.07328551080262
  N   7.03545177329501     -0.51184276604336     -0.44099062974029
  C   5.74531851500368     -0.02634610174955     -0.24020217799393
  C   5.03412696546841     -1.13330114542438      0.09637825532640
  C   5.01937967478868      1.20886424042139     -0.33276412558076
  O   5.48088632611694      2.31307301416926     -0.61810878115498
  C   3.50479678735049      1.05242970253471     -0.03550712949541
  N   2.77834360035940      2.13268970518045     -0.08686943822628
  H   4.87788854831283     -4.36739228465182      0.56065480281263
  H   8.19073240296699     -3.43981460052846     -1.16369462333877
  H   8.57262287826106     -3.18954842324828      0.53191042779434
  H   7.83866722866288      0.04162667689933     -0.69683277479646
  H   3.40959594224519      2.90034840085431     -0.32632374418913
