26
Coordinates from ORCA-job 11782optt
  Br  1.61514315703876     -1.19216285650230     -1.58207294939020
  C   2.55930013258299      0.04629883168266     -0.47848876858733
  C   2.91650885271656      1.30302120637252     -1.00003086131064
  N   2.31762936217781      1.73751946883571     -2.23450457505615
  C   0.92164602596717      2.21559677155871     -2.01049888281907
  C   0.89336084179181      3.20255518183096     -0.87498162470713
  C   1.04351498733795      2.91719982906632      0.46180228025654
  C   1.74909670357340      4.00996938825291      0.99989215385794
  C   2.69327929383238      3.91057977607844      2.16160393320063
  N   4.01457473559570      3.36744664096174      1.71020690099752
  C   3.92224959374057      2.17148835032144      0.92935762688209
  S   3.80550346483834      0.70240208663711      1.88500654676343
  C   2.86784375263374     -0.41962173724003      0.82368959397254
  N   2.54147352701269     -1.56539968762259      1.31215118307032
  N   3.56618127423367      2.25209519253038     -0.35004635500735
  N   1.89802854192797      4.97468408475292      0.09783624744227
  N   1.36413406723933      4.46802604834657     -1.02058937003613
  H   2.86771697496581      2.54274946830103     -2.51660912678656
  H   0.30119540818244      1.35215583822249     -1.77615826420607
  H   0.56550191105461      2.64850988009152     -2.94793734646840
  H   0.89827504901115      1.95202454816411      0.92179160157327
  H   2.88086200750089      4.88309928048959      2.61800284092540
  H   2.29943816437861      3.23237040890143      2.91897453550212
  H   4.43174274221970      4.07243954727407      1.10911547499914
  H   2.87936726845646     -1.65782325854052      2.26713328092130
  H   1.41243215998947      5.00177571123279     -1.87064607598947
