27
Coordinates from ORCA-job 11787optt
  Br  0.62715715362084     -0.57220265059574      0.55446758178741
  C   3.14699865547389     -0.18970622281390      0.28448293910660
  C   3.93866432490645     -1.30169071282516      0.34322962180453
  N   3.53698722141284     -2.44576219456479      1.08635627536190
  C   3.34726637811817     -3.64380815414507      0.28717431867210
  C   4.67112195170516     -4.34231761839917      0.01286027336847
  C   4.47274066266236     -5.51572879238751     -0.96488841857163
  C   4.42064907225216     -4.86693404861008     -2.35784239501517
  C   5.16663467511035     -3.54669583470169     -2.20457841041981
  O   5.32248394393891     -2.72010355358033     -3.05442348615462
  C   5.68079152939942     -3.48161582432818     -0.76295424311480
  O   6.07506968695254     -2.22101973512431     -0.30453217968989
  C   5.19144095898911     -1.17020557934046     -0.29746762002632
  N   5.65086000169825     -0.08412759700622     -0.85009247595265
  C   4.89244818325625      1.04959916999465     -0.85753756811091
  O   5.24100018536986      2.13341051084469     -1.29617568500095
  N   3.60063178285792      0.91342238037439     -0.30927064078384
  H   2.65312822937652     -2.19525484192775      1.52014957396856
  H   2.82800317106030     -3.41780823370786     -0.65779856605070
  H   2.70929345762601     -4.33058734646788      0.84821927927280
  H   5.09843687532495     -4.66081106164243      0.96397723163107
  H   3.57040647996839     -6.08165746622322     -0.73290931157507
  H   5.31866570676661     -6.20318657448446     -0.89970597963332
  H   3.40129612627909     -4.63116322164264     -2.66713179876777
  H   4.87190251524672     -5.46270692746418     -3.15119625238435
  H   6.61454179179262     -4.06004392062785     -0.78754489083030
  H   3.01837927883415      1.73870605139723     -0.35286717289132
