28
Coordinates from ORCA-job 11796optt
  Br  1.11860522239212      0.47967070900998     -0.61701129296553
  C   2.98208475257804      0.19383620400824     -0.43102958182733
  C   3.52513372396905     -1.09801905586861     -0.61726528009968
  N   2.70075557748794     -2.23388654884359     -0.84752067498397
  C   2.03533089496599     -2.76881561004003      0.33121403136456
  C   2.91921827397870     -3.56565716322226      1.29930527570883
  C   4.20459800954965     -2.85513253976313      1.77466312515032
  C   5.30741830083079     -3.34453862517457      0.83559200450483
  N   5.44446082336111     -2.56665817478519     -0.40891360680601
  C   4.90518562468016     -1.24925716953364     -0.42948113227748
  C   5.68068039173779     -0.15180059097645     -0.15183794777559
  O   5.17027178353304      1.12853914690853     -0.23876349793111
  C   3.78996905089439      1.34475996591541     -0.23747582156083
  N   3.38449447327607      2.55854973087988     -0.10703301998587
  C   4.80650945137111     -4.73534172257096      0.42771536460708
  O   5.45289412980460     -5.62837708040425     -0.07926334920016
  N   3.47413514332104     -4.76920856197657      0.69252748332578
  H   3.26249259627650     -2.95542267896552     -1.28720830300688
  H   1.21503444935909     -3.42040069974481      0.00727394462975
  H   1.58467839555042     -1.93573775402500      0.87365876453606
  H   2.30267109486888     -3.84406959758529      2.15964501571263
  H   4.44202995158391     -3.20826075760811      2.77945671607919
  H   4.10862264399997     -1.77132912783430      1.79940512080542
  H   6.26644312388406     -3.43279454766413      1.35180363078985
  H   6.39670356435808     -2.59247632858786     -0.74192291587208
  H   6.74970822492822     -0.17034203678474     -0.00092774005725
  H   4.19981443303482      3.15536760961497      0.00600940178245
  H   2.90905589442439     -5.52719699437797      0.34438428535302
