27
Coordinates from ORCA-job 11791optt
  Br  0.98529313999878     -0.06457470337075      0.08782864968316
  C   2.89429299366705     -0.06737867501064      0.09903522676415
  C   3.60730393863539     -1.27319815755805      0.07666761766708
  N   2.95669192388470     -2.48643293553584      0.09347232530585
  C   3.30600257354763     -3.57954141193036     -0.79716069512238
  C   4.61536473871667     -4.31143879458645     -0.48535961413616
  C   5.83004424511965     -3.43868394512534     -0.74822939508925
  C   5.95328910790746     -2.32671011072276      0.28658015643387
  C   5.82939239651012     -2.84065324941913      1.73103133632061
  O   6.32506556169988     -2.12864028550973      2.64192650240901
  C   5.11290451267156     -4.07057476679531      1.97924332825307
  O   4.86134521647815     -4.54871674932313      3.09107213837601
  N   4.70279438343989     -4.84264787608296      0.84845056628837
  C   5.01401581119073     -1.15565012060762      0.09620374695970
  C   5.54552304663561      0.12928990016102      0.11530930312597
  N   4.85320489835734      1.26919781044940      0.11695727772829
  C   3.53417430014483      1.15888758261059      0.11999432687667
  H   1.96140652202853     -2.38950789147838      0.21038792914494
  H   3.34482865819393     -3.23784652023684     -1.84298567958246
  H   2.49008356352299     -4.30073559985201     -0.71892203780140
  H   4.64176200407620     -5.15027915410439     -1.19354421807113
  H   5.78224789914923     -3.03155868090184     -1.76325403133024
  H   6.71927803327815     -4.06838646712446     -0.67598901279846
  H   6.96199240237699     -1.90988865448110      0.21522369894070
  H   3.97020177155035     -5.48182907685703      1.12429197002038
  H   6.62442680062642      0.23155717978702      0.16095384290504
  H   2.94906955659168      2.07194135360616      0.12981474072863
