26
Coordinates from ORCA-job 11795optt
  Br  1.05828268713499      0.02679796603212     -0.28012617016795
  C   2.95133262415093      0.03532106976366     -0.06957797472371
  C   3.64667277194579     -1.11330565435461     -0.18355243462775
  N   3.08559128518635     -2.32389746081281     -0.62817445935947
  C   3.17368177354043     -3.49802719958921      0.24009612031839
  C   4.53578390914092     -4.07515946098231      0.13936790430891
  C   5.65313415782205     -3.48444502737032     -0.25080845258967
  C   5.86752894160695     -2.05493859008427     -0.61257061527636
  N   4.99781658575550     -1.16200897938160      0.13794636915261
  N   5.71161924702034      0.01576146104361      0.48205086330103
  C   4.97113946165351      1.13966538120765      0.55245141753376
  C   3.59789788195603      1.30625266024081      0.30064317751941
  N   2.87527066379541      2.41233921976177      0.34813376114932
  N   6.64118654104258     -4.48181392103746     -0.23747566284036
  C   6.09811109963280     -5.65684950809468      0.23408361922645
  N   6.59590343485275     -6.80327432432561      0.46377178268207
  O   4.77630768685547     -5.40788346292001      0.43824486042508
  H   2.12689606850344     -2.15415705451323     -0.89767551735672
  H   2.45006286332725     -4.23204442117198     -0.11952908262956
  H   2.92266022606089     -3.26507308152552      1.28329069705118
  H   5.76497566827945     -1.90953497971683     -1.69738928180375
  H   6.87587580182817     -1.75183905651402     -0.33199357323840
  H   5.55174693733408      2.02031277181491      0.81138239310903
  H   3.48616257168183      3.17928534805188      0.62702232118098
  H   7.63020414267161     -4.31292686171406     -0.26610483912359
  H   7.58515496722037     -6.81255683380783      0.24049277677908
