29
Coordinates from ORCA-job 11793optt
  Br  1.51744679878512     -0.08794739620788     -1.06584971668950
  C   3.38608914463588     -0.09685062866742     -0.47252068468090
  C   3.81150493491095     -1.19501542336930      0.21622879056816
  N   2.98125386551007     -2.21798832821622      0.73974472578469
  C   2.87567057580634     -3.42300087453474     -0.07702874156670
  C   4.18431612127808     -4.19876719308352     -0.15519891689909
  C   5.34657075417420     -3.36335807225718     -0.71447971479859
  C   5.98794621847414     -2.41209282728388      0.30413220730475
  N   5.18191912437226     -1.22157603172214      0.60151491370001
  C   5.90242325045828      0.01977390296777      0.58660973408639
  N   7.08328143474146      0.14152060156427      1.11774451386669
  C   5.26989856011090      1.08244781965712     -0.11416327951274
  N   4.06254866948453      1.00740929950950     -0.71364705545328
  C   6.27632743495923     -3.19257363649597      1.58536439272933
  O   7.37820171597404     -3.24999351795278      2.07789707717743
  C   5.09011934603129     -3.95004456808672      2.14203501508584
  N   4.51731821284098     -4.84673782851041      1.12416475738708
  H   2.05509949273974     -1.84748461001498      0.90906804597540
  H   2.56217440623099     -3.17933678539960     -1.10334464181149
  H   2.12271919161153     -4.07533723066220      0.37074421574318
  H   3.99911645131407     -5.01701121042685     -0.85749459880447
  H   5.02694084136886     -2.78840143260141     -1.58726754962732
  H   6.13341135401831     -4.05247158488270     -1.03683320514989
  H   6.95205847443200     -2.07019404390831     -0.07960534450603
  H   7.36110399824143     -0.70637240956127      1.60472205066585
  H   5.81520775091114      2.01436499694693     -0.18239854020475
  H   4.32603667701685     -3.23561678639852      2.44559441111612
  H   5.41143035114210     -4.53837955274194      3.00083522652935
  H   5.19286484842508     -5.58096464765960      0.93943191198447
