27
Coordinates from ORCA-job 11797optt
  Br  1.09360555552001      0.55811133771911     -0.66592825348279
  C   2.94385031105925      0.24014015324433     -0.44841290695910
  C   3.49137242228239     -1.06494529325991     -0.56679903695501
  N   2.66241985111390     -2.20293403584595     -0.77137315458382
  C   1.96071445576108     -2.68086698298607      0.40949633034653
  C   2.81305198540316     -3.46081659395271      1.41797816254852
  C   4.10327249858077     -2.75462314185497      1.88531884816713
  C   5.20755992982471     -3.27912683421108      0.96489477158581
  N   5.39697200199573     -2.52999044430319     -0.29212510388320
  C   4.85935564454992     -1.21498978678899     -0.36454357886643
  N   5.71765011207332     -0.22011233879236     -0.17560829882748
  N   5.15506502896436      1.02962326656823     -0.33168560842890
  C   3.79606012772846      1.36542706220132     -0.31320799085546
  O   3.48917844853088      2.55836260655488     -0.22293799560467
  C   4.69154770763996     -4.67483353751750      0.59053849517436
  O   5.32856515716352     -5.58969383262141      0.11411956835747
  N   3.35762609335182     -4.68932386150200      0.85574152150099
  H   3.22214548160464     -2.94704125873364     -1.17443716367012
  H   1.13301242578146     -3.32584928392529      0.09210493362233
  H   1.51753069299931     -1.81999801463828      0.91359004813361
  H   2.18016638466397     -3.70234888119858      2.27744958807047
  H   4.33009220095694     -3.08758527659167      2.89938896263479
  H   4.01549869341735     -1.67079963272471      1.88536066337597
  H   6.15656935110034     -3.37461810276014      1.49567868044051
  H   6.37981396789109     -2.48974046761897     -0.52286896299865
  H   5.76490418359221      1.79046805063403     -0.08163752765078
  H   2.78639928644939     -5.45389487509443      0.53290500880792
