21
Coordinates from ORCA-job 11803optt
  Br  1.05544132233755     -0.11831694401619      0.05930442735740
  C   2.93093311301418     -0.16443011699079     -0.03971845822894
  C   3.66863170026650     -1.30765969145842     -0.04715547349284
  N   3.31568750193982     -2.64582953894605     -0.04344966176112
  C   4.47692278181312     -3.39773452734591     -0.05423057235250
  C   5.56785652895387     -2.57155992644742     -0.06191883869999
  C   6.96406182221860     -2.94313544522332     -0.05828375361364
  C   8.01064657511219     -2.06867292780515     -0.05099923285596
  N   8.13117731721219     -0.69801892660658     -0.05298631383476
  C   7.14566301277638      0.17177294217258     -0.05699429876152
  C   5.74397987627280      0.01702023252980     -0.05787225101512
  C   5.07117498840150     -1.23194035360163     -0.05888526659765
  C   4.93951732404853      1.21502188691904     -0.05432519686568
  O   5.30576873356234      2.36408272048231     -0.06091576987555
  O   3.53365252773692      1.04400100152470     -0.04098369729485
  C   9.31567298289339     -2.71181312906993     -0.03624727674737
  N   10.33707232462906     -3.23978560241808     -0.02299508096776
  H   2.37551310261989     -2.99370534700147     -0.04380280853477
  H   4.43440683730176     -4.47502949573553     -0.05295524684133
  H   7.20265512481508     -3.99994448057494     -0.05463342756551
  H   7.47156450207425      1.20867766961299     -0.05795180145055
