26
Coordinates from ORCA-job 11807optt
  Br  1.25637567417560     -0.30232809663787     -0.46912032829677
  C   3.01487884092131      0.00795834596639      0.11007545832966
  C   3.57488060189642      1.22891198411581      0.03323285649406
  N   3.04166323308381      2.41079507753671     -0.41071233622715
  C   4.14361981810361      3.32065192607623     -0.77640406800236
  C   5.25006461555876      2.88209147937027      0.18477982345431
  C   6.69068447692124      2.97495864221283     -0.34476844389221
  C   7.56743901317790      2.16648961534864      0.60703831342562
  N   7.04006483713938      0.82518748063930      0.82786569101249
  C   5.75354981341648      0.46604148566333      0.66515905913884
  N   5.42942187841849     -0.79361456823491      0.72677690267845
  S   3.90605109509223     -1.29512567110980      0.85324738578251
  O   3.73198951872751     -2.48429821275737      0.07018477390195
  O   3.54307097782088     -1.38371187809330      2.24463101673339
  N   4.87410426088814      1.47613227170259      0.43383039876050
  C   6.83865164624594      2.56014505176043     -1.78602844655910
  O   6.40302204777129      3.34491309974622     -2.70356990517414
  H   2.26762750595668      2.31695141358929     -1.05103447465912
  H   3.85606652370694      4.35700489876269     -0.60658894571467
  H   4.47875016708771      3.18883432844803     -1.80639155379174
  H   5.15780029415220      3.41883155499975      1.13795461612183
  H   6.97535212541186      4.03670202412992     -0.23369176235005
  H   7.66598057612671      2.67868207011891      1.56940893597161
  H   8.56104328863464      2.06581097064878      0.16923450488608
  H   7.66477540015388      0.04669472494402      0.94662704837548
  H   7.60207176941028      1.79228998105306     -1.98973652039945
