23
Coordinates from ORCA-job 11809opt
  Br  1.03907498288728     -0.05553324481504      0.29633051009497
  C   2.91953931842877      0.01118582988724      0.08094667335577
  C   3.59339645450130      1.21993941118859      0.29191881367981
  N   5.01971218855700      1.24028207847751      0.38401270260840
  C   5.59291042163341      2.57702072699451      0.24359891240070
  C   4.35493174854697      3.36953592898410     -0.02886476994853
  C   3.86575755696818      4.64652810634634     -0.23833257062909
  C   2.47981784635061      4.45540147538300     -0.35560894790317
  N   2.12234536764938      3.17211899096460     -0.22071877641759
  N   3.27955586037273      2.53816311899390     -0.02182731852468
  C   5.69679963901125      0.11640256084257      0.07030832511005
  N   7.00041989379311     -0.05433729304455     -0.06754925490463
  C   7.06468927129086     -1.38435598400884     -0.35696716278944
  N   5.92016568281005     -2.01947112390160     -0.39976107281190
  N   5.02760534634247     -1.03472312684661     -0.12963869714645
  C   3.59329846788664     -1.22722726661538     -0.04180387322154
  N   3.09290691566162     -2.41299229892695     -0.07336690593723
  H   6.32414697481174      2.59025014716712     -0.57055574763529
  H   6.10977583764498      2.88845889043160      1.15968451811201
  H   4.41721807585651      5.56846503596393     -0.30242200122029
  H   1.71755846333866      5.19690117533082     -0.53655648061892
  H   7.99726567241153     -1.89500621918325     -0.53845947851835
  H   3.84510801324468     -3.08700691961367     -0.18636739713460
