23
Coordinates from ORCA-job 11805optt
  Br  1.08867067080688      0.08565002259008      0.06368456178771
  C   2.96592024291953      0.11756358554481      0.06166354343487
  C   3.64827678230098      1.32790932185086      0.06101951764820
  N   3.00419789152885      2.50940882631707      0.06116585452982
  C   3.70498916537222      3.64240599094480      0.06081558962135
  C   5.09947948653748      3.68559254204329      0.06051357455456
  C   5.83917274524132      2.49923922467972      0.06028617566725
  C   7.24259015459740      2.62492069130300      0.06016645349057
  N   7.90874827199097      3.74985916122217      0.06024311727895
  C   7.19530445716658      4.94011584451162      0.06042959943980
  N   7.72557569353487      6.10867049793111      0.06032563024077
  N   5.80994822934518      4.86069817522388      0.06052227394386
  C   5.11509012987877      1.24846148661837      0.06025303291201
  N   5.76227184820166      0.12303882513508      0.05966952643656
  N   5.02791210007961     -1.00652500189850      0.05977317911137
  C   3.64776591557183     -1.14800162017451      0.06088386724288
  N   3.05828980311142     -2.29775249577621      0.06112435507949
  H   3.13877361128290      4.57009361997394      0.06087115098608
  H   7.83289770473079      1.71228411396650      0.06009961939868
  H   8.73383646869232      5.98733100766014      0.06018304761761
  H   5.32599596943107      5.74490050919011      0.06064123134182
  H   5.57856901242170     -1.84816262401976      0.05921768082304
  H   3.74472364525561     -3.04970170483761      0.06044741741277
