27
Coordinates from ORCA-job 11817optt
  Br  1.36598142556315      0.38477585877214      1.13940663572622
  C   3.07233512424241      0.08292547353276      0.39511507489016
  C   3.81789096389601      1.14077488620813     -0.10308624979779
  N   5.14433082399783      0.89214410375260     -0.50292722029206
  C   5.81007584311733      2.09218431018348     -0.99424824224082
  C   4.94619611599807      3.21249535940906     -0.42972658803550
  C   5.27137290852304      3.64558968250069      1.01552033311925
  C   3.98407624240298      3.33794227603722      1.80637998811934
  O   2.95476861958650      3.26416526228391      0.83869236623305
  C   3.54109083009694      2.60033333887263     -0.27948294056814
  C   2.68757333451954      2.65842786228408     -1.50859461194330
  O   3.08056360297648      3.10026488368801     -2.59040361451404
  C   5.68083018418702     -0.34380656515100     -0.63384139980377
  O   6.81104012117831     -0.55364675044066     -1.05866490859028
  N   4.84341438969373     -1.36220318282330     -0.23738616620517
  C   3.55749579859416     -1.25229099366608      0.35635562176133
  N   2.92948307858135     -2.29453722070988      0.79474203020696
  H   5.79616489332943      2.10311707140861     -2.08603080195784
  H   6.84463948787515      2.10976931994266     -0.65395190255743
  H   4.90640592674066      4.05749967735286     -1.11296473710909
  H   5.50977946424074      4.70851698157863      1.05447565203716
  H   6.12308691645067      3.09480641366418      1.41742516169151
  H   3.71396539241828      4.11189240835274      2.52377488340863
  H   4.07164675337565      2.38091272253764      2.33326081837727
  H   1.70203568972765      2.17996123756939     -1.39707487475684
  H   5.25262156098546     -2.27981694440143     -0.30036040912424
  H   3.49213450770125     -3.13119747273916      0.66259610192543
