23
Coordinates from ORCA-job 11815optt
  Br  0.93604046885685      0.10824602016877     -0.17016490306429
  C   2.81161304582952      0.13031872876889     -0.05830386113050
  C   3.58883874360622      1.22828009268646     -0.03924453392115
  N   5.00361491509678      1.15179071703851     -0.02487726227742
  C   5.58845714426192      2.48563669781401     -0.05320533473291
  C   4.38014330644826      3.36774036088913     -0.03895317502742
  C   4.25335130953479      4.69316794799119     -0.02499449075145
  C   2.87952007299960      5.24365530128492     -0.02042206117958
  N   2.65541932063092      6.52727367253013     -0.07080551705767
  N   1.83483871927625      4.37760844942508      0.04902285581088
  N   1.94724957846095      3.05707891687849      0.07979023554072
  N   3.27436699446116      2.55984032588464     -0.03666988060731
  C   5.81095786224952      0.05706677901385     -0.04565278954228
  N   7.08963887515372      0.08010884967213     -0.07451326124103
  C   5.17745228738214     -1.31833913617299     -0.02152574510472
  N   5.87686049323025     -2.37094422570931     -0.00175505451036
  S   3.43950237481982     -1.50632355720790     -0.02039525797594
  H   6.18803505738255      2.62056538362517     -0.95881924985035
  H   6.22907366902566      2.64658696053537      0.81866391553021
  H   5.11510006219935      5.34662071290064     -0.01919327325962
  H   3.54956739170376      7.01071044057382     -0.11316605897281
  H   7.46810359481161      1.02060580609512     -0.08906632375318
  H   6.86125471257833     -2.09329524468618     -0.00674897292183
