26
Coordinates from ORCA-job 11823optt
  Br  1.09963456148383     -0.25644535296551      0.92139798755644
  C   2.89639699112735     -0.10667026071633      0.38103869308364
  C   3.70684019800825     -1.18732266867004      0.11879342346620
  N   3.35999786577596     -2.53863485478454      0.14971637145220
  C   4.60765053820040     -3.32218919459657      0.22166417370481
  C   5.63972958896827     -2.42335338193899     -0.49208782014499
  C   7.10159578327604     -2.47819917598367     -0.01074212503355
  C   7.24643803865047     -2.47050244757940      1.48721285698470
  O   7.93352599232211     -3.23666661324091      2.12695551637152
  C   7.84121403816255     -1.20652550087936     -0.38597516013769
  C   7.19319990748296      0.01664708963427     -0.38854330307488
  C   5.79908854381121      0.09208129332404     -0.22266580515564
  N   5.13560354382230      1.31570482372688      0.10948241124020
  S   3.48640823430704      1.43931495745300     -0.10554447003661
  O   3.26164014379127      1.65455240269690     -1.50701337834348
  O   3.04430875438888      2.45489327515300      0.81485952030863
  C   5.05022215494444     -1.07041083960916     -0.24088335182749
  H   2.61749193396154     -2.78340611399356      0.78894372360936
  H   4.47763454657965     -4.29262793288660     -0.25722173250736
  H   4.90843065000365     -3.48634720708644      1.26390060221977
  H   5.64361890282742     -2.65449621892840     -1.56545140736915
  H   7.61377243693952     -3.36635961880505     -0.38590379197201
  H   6.71819503405538     -1.63594566128931      1.98743232348896
  H   8.91568787908245     -1.26487422346399     -0.48971235487762
  H   7.75923754275197      0.93473492139874     -0.49754583846247
  H   5.36643619527498      1.67804850403101      1.02789293545650
