26
Coordinates from ORCA-job 11827optt
  Br  1.12279035513694     -0.39179133342205      0.61413385677215
  C   2.98745380319573     -0.16280440706379      0.24642514547808
  C   3.52113425880486      1.05692288651671     -0.22919462242758
  N   4.97326329446311      1.14127095111582     -0.11791422237297
  C   5.85355171478535      2.25992070956069     -0.58944032290230
  C   4.88949345126454      3.27612397298849     -1.08828356968518
  C   4.00582162065775      3.78053451042954      0.06470464702537
  C   2.70096887924893      3.55072687429859     -0.61153062629103
  O   2.77279239117358      4.30470463799283     -1.89549609626068
  C   3.95888433036197      4.81973016729030     -2.29630249704893
  N   5.11978673925567      4.41819327453600     -1.96435749155497
  C   2.55728813516837      2.02993704912822     -0.80748333320711
  O   1.52495522800464      1.64538403159114     -1.37626070241494
  C   5.78702728234477      0.08802627308928      0.35209502368503
  O   7.01087956978930      0.25746379275957      0.39092144358498
  C   5.14145325126183     -1.11732789436469      0.74150003231641
  C   3.77151935805146     -1.20529838966610      0.71061639229030
  H   6.51606087021771      1.87503956262971     -1.36524508598534
  H   6.47711387224701      2.58110812183493      0.24561757348103
  H   4.27888810225924      2.63940771857906     -1.72871114580715
  H   4.22615604396813      4.82482775454170      0.28423755093455
  H   4.09029569272060      3.18586945481964      0.97034422508225
  H   1.79651864264514      3.93421054167033     -0.14071199422009
  H   3.81827016225423      5.64399393107231     -2.98941040485714
  H   5.77233776846733     -1.92134198319822      1.08842460812073
  H   3.27729518225176     -2.09283220873004      1.08532161626454
