27
Coordinates from ORCA-job 11837optt
  Br  1.25585109786729      0.12919725331013      1.38332997625346
  C   3.06196928495183      0.00913942623140      0.68621977575216
  C   3.51879278739817     -1.22260523607402      0.36375827178192
  N   2.88246479946944     -2.46384624924685      0.50443191189741
  C   2.94892890916023     -3.31834336040150     -0.67234565450784
  C   4.18579082789701     -4.22286549849856     -0.69201188286101
  C   5.16038008325989     -4.15014340206963     -1.88129337911987
  N   6.27574973078679     -4.37452327397813     -0.93846765913439
  C   5.43762444108036     -3.99193967236387      0.19613189932760
  S   5.82941915814640     -2.32378351148049      0.81916524320807
  O   7.20341819273436     -2.09883756068086      0.44742896866582
  O   5.47188128577928     -2.28194596200627      2.20775635197889
  N   4.85684638360671     -1.32645067069922     -0.11580841699638
  C   5.41711616032868     -0.09468015917343     -0.70696147323962
  N   6.36016972037789     -0.13592547787958     -1.59590266868743
  C   4.82628801795407      1.09252136073152     -0.21433747678434
  N   3.70443572765149      1.16233560392828      0.51638770339131
  H   1.94746705517158     -2.34847238519511      0.86562770259156
  H   2.93233885304956     -2.71758860714907     -1.59028763517466
  H   2.05391974662100     -3.94119356652766     -0.67534200824974
  H   3.89239357141633     -5.26053417110150     -0.52890719056661
  H   5.15659525293578     -3.15512895047723     -2.33616836123513
  H   5.06640387061479     -4.91358788509911     -2.65498513615793
  H   7.09405159121247     -3.78399818153871     -1.04982535132110
  H   5.53902103963404     -4.60765265540233      1.09138097535160
  H   6.68809865217729     -1.08825929461134     -1.72428699992949
  H   5.29558375871714      2.02311208745320     -0.50868748623427
