27
Coordinates from ORCA-job 11830optt
  Br  1.09057945661682      0.12151836903159      0.42044606344096
  C   2.93752909305882     -0.04733145804064      0.05079176325831
  C   3.54995446694805     -1.27560045666527      0.16254271813598
  N   2.87994300887099     -2.40267469582953      0.53401227565024
  C   3.42909730487302     -3.70651644624955      0.18684403970384
  C   4.87025322993869     -3.83204800560695      0.65518367064653
  C   5.50871018815187     -5.10488470058870      0.08890754055588
  C   6.18443866648803     -4.68418600666212     -1.21755970658755
  O   6.60337372574330     -5.50749812860038     -2.05149956926260
  C   6.29046289348328     -3.24668805456485     -1.24596543149550
  O   6.82055374770032     -2.50867746739677     -2.09905050571347
  C   5.70981336498830     -2.68538901493004      0.07098142247461
  C   4.96319546912231     -1.39154166441543     -0.09953484985201
  C   5.59711801763390     -0.28551044773629     -0.53666170990933
  N   4.95585111384105      0.91100624912801     -0.67566652668289
  C   3.61796973772869      1.14586296571350     -0.37248127424370
  N   3.05039912411895      2.30023619062055     -0.47689863195043
  H   1.87560796494385     -2.31732272584229      0.54537543105527
  H   3.39477964979998     -3.87081258264953     -0.89772154668392
  H   2.81102303680621     -4.46659868793209      0.66643255343694
  H   4.87099570970319     -3.80646573617747      1.74812599957641
  H   4.77724683168782     -5.89897551924283     -0.09150015643618
  H   6.25850756655189     -5.51229589851264      0.77652883184507
  H   6.55831527389839     -2.49310925624705      0.74165638788713
  H   6.64120855396445     -0.31169274116683     -0.81471118575743
  H   5.47548586718510      1.69535234554402     -1.03305105306206
  H   3.71258693615266      2.99984357501962     -0.80352655003007
