23
Coordinates from ORCA-job 11834optt
  Br  0.52176482437064      0.52774227316852      0.16040305895016
  C   2.74359504695928      0.29184113178276     -0.91859456753210
  C   3.53615143731604      1.34281108867413     -0.57101760599136
  N   3.23058215104066      2.70647715208275     -0.29882629107617
  C   4.20237699257753      3.11102610305566      0.72722514280752
  C   5.49114092836026      2.31216550617085      0.36385605950149
  C   6.36349818249606      1.80459341245593      1.51811207152793
  C   7.24949893113113      0.62990052773750      1.10383561563061
  O   8.37388501522252      0.50770117142331      1.49187259310984
  O   6.71301476636924     -0.31352366989945      0.30084603799096
  C   5.42505626624029     -0.14078719197349     -0.18213541936381
  C   4.86422256941864      1.08785694980023     -0.24076459229882
  C   4.64275793486634     -1.29418713660200     -0.54753701956312
  O   5.00209040167597     -2.46482954019691     -0.54476148364237
  N   3.34012849888368     -0.93149312031428     -0.92300451847549
  C   6.30935274852604      3.06496060921571     -0.59839633616046
  N   6.96986045206414      3.68143525434376     -1.30443405760829
  H   2.26517955281291      2.79728662288153      0.00497332958979
  H   3.89200589667777      2.79138550200295      1.73002649893868
  H   4.36784231742755      4.18730578265460      0.72221182904697
  H   5.69340252072062      1.43426302017188      2.29858321637315
  H   7.01795457884488      2.56333776315500      1.93959678430693
  H   2.76763798599761     -1.73326921179100     -1.15407034606208
