30
Coordinates from ORCA-job 11838optt
  Br  1.09603278227410      0.17264384046199      0.11091885083544
  C   2.97157420491521     -0.06123361222204     -0.13156829102376
  C   3.58959004902691     -1.24245580291463      0.20647611352515
  N   2.84169013484240     -2.29048796753591      0.79957775593956
  C   3.33839987454306     -3.63234706237870      0.59004385787597
  C   4.76086867931964     -3.70641159813451      1.11901265308148
  C   5.41538182039895     -5.06013206119048      0.86656142901440
  N   5.98930167755949     -4.92524674533677     -0.46736689891214
  C   6.04910719353512     -3.54068791667667     -0.91425655958521
  C   5.63638672998690     -2.72309962944282      0.33097199333925
  C   4.97815548352649     -1.40998194002018      0.00868691447621
  C   5.80960730084513     -0.40560729018911     -0.53027435111188
  C   5.44791587473466      0.89530917179065     -0.92808090899802
  N   6.16890577073962      1.85634049112898     -1.42343360079177
  S   3.73754368473816      1.39689025613892     -0.72659530263609
  C   6.31985830709595     -5.97729515195053     -1.24758563869983
  N   6.76716005860889     -5.98490401938814     -2.44492864667609
  H   1.85569312701230     -2.20014466301053      0.60438604306164
  H   3.33295666128070     -3.93112081160737     -0.47142706335117
  H   2.69654126047278     -4.32783582334178      1.13648674254810
  H   4.74607963982500     -3.45496499072561      2.18045748880773
  H   4.69702356046563     -5.88451883082533      0.89551313215349
  H   6.19351447753264     -5.25970334807625      1.61175368706900
  H   5.35330713409910     -3.36680265101049     -1.74192659084892
  H   7.05347543214479     -3.28215930070189     -1.25960666721698
  H   6.54961166705759     -2.53799588914115      0.91011774152026
  H   6.86491979088086     -0.64135291641581     -0.65005650368249
  H   7.13278009514596      1.53330070896493     -1.50200115728882
  H   6.17120466375171     -6.93922751019409     -0.75224080703170
  H   6.86041286364016     -5.03676693605465     -2.80761541539284
