24
Coordinates from ORCA-job 11844optt
  Br  1.12876513346056      0.10907403725195      0.04945055212587
  C   3.01284548812869      0.11625511284068      0.04968830987240
  C   3.69357257518441      1.33498949920052      0.04942410495026
  N   3.02912599199590      2.50671425693964      0.04908948326010
  C   3.73621364557327      3.64085901902520      0.04878167200941
  C   5.12270094379143      3.71845243434664      0.04874429057205
  C   5.89029557261229      2.54109137989954      0.04909336934745
  N   7.22970007044583      2.56882302921596      0.04907313961596
  C   7.85223939296821      3.72919245478336      0.04867909351007
  C   7.18350636269487      5.01686732096918      0.04824071217188
  N   7.72379523948406      6.19114513663464      0.04774614153284
  N   5.81096024185361      4.92125042263249      0.04833305750451
  C   5.15388842937521      1.29140325140171      0.04949622005986
  C   5.76809517159621      0.08386422977017      0.04994641281796
  N   5.05022791658227     -1.07229901421234      0.05026976150780
  C   3.65330712810590     -1.16476527077849      0.05015542446369
  N   3.03773907312024     -2.30457266349821      0.05043829741280
  H   3.16007716772191      4.56445444754313      0.04853598979363
  H   8.93696269878372      3.73135837017986      0.04864623167597
  H   8.73485966046875      6.09317328020865      0.04771297490114
  H   5.30508787445572      5.79390474541998      0.04803445399247
  H   6.84503878683607     -0.00583968369846      0.05005056114648
  H   5.54643925667558     -1.94765325550406      0.05063292661895
  H   3.70755617808526     -3.07074254057177      0.05073681913645
