28
Coordinates from ORCA-job 11842optt
  Br  0.89165346177309      0.19697644637489     -1.14923633005359
  C   2.65133517761261      0.76526220916161     -0.63093296225254
  C   2.90281645614579      1.18007172131688      0.62232436247880
  N   2.02094300850716      1.58461772959733      1.60370618689508
  C   0.90574672999745      2.49839746716730      1.35620311827887
  C   1.03113167369999      3.76203485608759      0.43967658190150
  C   2.43656021242368      4.37256693345205      0.27802451317224
  N   3.26757613297856      3.57672420169860     -0.59463684654093
  C   2.71549458055887      3.23807095547550     -1.68691831141066
  C   1.34621128590445      3.77586542658158     -2.02862126819686
  N   0.43600419618506      3.56091017744909     -0.88871762574956
  O   3.17770464407528      2.23655100655702     -2.45823824466105
  C   3.64652436499927      1.06336326262961     -1.63824141922730
  C   4.97179564290837      1.04971728361023     -1.18638170927149
  C   5.25970344214320      1.02234550499426      0.19832971330631
  N   6.36394853752088      0.88752026435941      0.85248594253812
  O   4.17176392803864      1.29414312725315      1.05340818285875
  H   2.53226245660791      1.79699483432110      2.44699589802473
  H   0.62717224560725      2.85289393308650      2.34983064312437
  H   0.04713685354240      1.92781674700763      0.99095198735482
  H   0.42736333524817      4.51765285164303      0.95829560041017
  H   2.92351527088079      4.45623036123903      1.25278994309944
  H   2.30062576360796      5.39485590600924     -0.10264282455593
  H   0.93891896065746      3.26618968501822     -2.89911083790428
  H   1.40498643814434      4.84625292525056     -2.24726314633066
  H   0.09313188422815      2.61140740182804     -0.95807469608183
  H   5.79854299971852      1.24391207551507     -1.85959960910253
  H   7.09743031628456      0.68565470531539      0.17859315789603
