22
Coordinates from ORCA-job 11847optt
  Br  0.96037806874012     -0.16264337277665      0.01170163448325
  C   2.86367452785127     -0.10831870179149      0.04556431610822
  C   3.60037925997007     -1.31689188629294      0.05532619261809
  N   3.25970140005557     -2.62185001871268      0.05078889552312
  C   4.42542893776399     -3.29182286799985      0.06011350527153
  C   4.40752279374047     -4.73502920863377      0.06077023202917
  C   5.34900414420266     -5.73958790605412      0.06224742412086
  N   4.73892865237962     -6.97053799787639      0.06289137409927
  C   3.45295459181411     -6.72072732337178      0.06194074695573
  N   3.20314919122234     -5.38940948095432      0.06044932279292
  C   5.55971893165563     -2.42628627318539      0.07083008069971
  C   6.93045525412589     -2.75836261854896      0.07656333750945
  C   8.10752163590020     -3.02078474715354      0.08105914216053
  C   4.99517553298386     -1.14553356415255      0.06887435038340
  N   5.50264635800758      0.11770663766593      0.07644286841635
  N   4.71695753887414      1.26442697679903      0.07222799032888
  N   3.42242538933562      1.07210561184495      0.05496991828347
  H   6.42023263361133     -5.63092098545192      0.06260467714692
  H   2.66687215123006     -7.45854634747813      0.06232281125673
  H   2.32610845441522     -4.89109876905545      0.05924406357153
  H   9.14027744180569     -3.26860746512019      0.08405275665142
  H   6.49048711031451      0.30072030830024      0.08801435958946
