24
Coordinates from ORCA-job 11846optt
  Br  1.11638467798598     -0.01666802192838      0.40351810284795
  C   3.00935194322066     -0.02107543464538      0.24426247682356
  C   3.70831329710946     -1.24345402232938      0.21740488002558
  N   3.07120416985193     -2.46622121499226      0.43099842045328
  C   3.62794948101717     -3.70136367857170     -0.11764922492602
  C   5.10669245428169     -3.66850728542810      0.07375670038626
  C   5.75772501885396     -2.46899939913216      0.13701542757950
  N   7.08395804649134     -2.79097276520054      0.25056553398295
  C   7.16778848766495     -4.15524748295032      0.24673316216374
  N   5.98775281409090     -4.71387319636050      0.13826252232403
  C   5.10604179162380     -1.18652034102126      0.09650849777852
  C   5.76433935648383      0.02636795849061      0.00266401367526
  N   5.05361915751099      1.22228766985508      0.02555641289662
  C   5.73259926146200      2.40566356619440     -0.07899915511658
  O   6.95539133148466      2.46367042544596     -0.18507068090557
  C   3.61157520935334      1.25141262892164      0.15283491314727
  O   3.04789894294329      2.34309240740204      0.16310284983407
  H   2.06753371576814     -2.40006106287017      0.35844141610962
  H   3.38916366552155     -3.81294349759155     -1.18935315856610
  H   3.18510441281957     -4.54872075831004      0.40774921757487
  H   7.84110938106261     -2.13794692204795      0.35497759654700
  H   8.10901737630590     -4.67368167725767      0.32980671630795
  H   6.82761669346351      0.14331867283938     -0.13055725047073
  H   5.07186931362861      3.27244343148830     -0.05952939047304
