26
Coordinates from ORCA-job 11851optt
  Br  1.28654667986448      0.48055109352868      0.50420975046001
  C   3.13150725263566      0.11825492792581      0.31087288190160
  C   3.99411337320759      1.07476422331955     -0.10306707508101
  N   5.37714869065057      0.70102517728881     -0.21488534746980
  C   6.04782204877791      1.71480364460489     -1.00663636504185
  C   5.30836212449645      2.97507587467772     -0.61135170764093
  C   5.60345074703176      3.41160739825727      0.82941714183446
  N   4.32937259837601      3.94957055678213      1.27041699230507
  C   3.24928515064516      3.46038584838509      0.55738030319925
  N   2.02500083864717      3.74542926794333      0.68233455369505
  C   3.81802458745086      2.52906410274540     -0.52003252175451
  C   3.11705719977258      2.68144872306792     -1.79753141949179
  N   2.64054257371033      2.80401089291632     -2.83465664467107
  N   5.62227451548068     -0.59773806027407     -0.71823203260614
  C   4.78114220953116     -1.47918708048503     -0.26830862805257
  C   3.58299029126877     -1.24153003666890      0.49637972405370
  N   2.85716596851700     -2.16480507295812      1.12164171558728
  H   5.92816818748185      1.51391479951151     -2.07926124301373
  H   7.11353350409661      1.74661145951556     -0.77117725399944
  H   5.43629459986338      3.80170586463403     -1.30855950826655
  H   6.38239263022947      4.17488295878709      0.86650510445870
  H   5.91681538159302      2.54457798064410      1.41752471102718
  H   4.18791821611565      4.20094540117658      2.23503443336320
  H   1.87560769440208      4.39602238904556      1.45310909158380
  H   4.98303838953152     -2.50327725776954     -0.57677965089319
  H   3.35142454662211     -3.05411507660173      1.05865299451329
