25
Coordinates from ORCA-job 11854optt
  Br  1.33216122206305      0.15452977889111      0.97244477672942
  C   3.14988913613724      0.17835337815414      0.43739359007891
  C   3.70648222127706      1.39171317342640     -0.01729323744568
  N   3.03132009985368      2.49547365596545     -0.21565893966501
  C   3.68142765276942      3.63745289599763     -0.50434391041584
  C   5.09046838674693      3.73186526336191     -0.31843587383173
  C   5.78681083250513      2.56105946237443     -0.13794128604974
  N   7.08948150972311      2.57816995417783      0.28178602250905
  C   7.85454682553275      3.72224834656337      0.46487002679838
  N   9.09709882850769      3.71909274384123      0.81454893161042
  C   7.13355348782595      4.95238810257467      0.21068759774325
  C   5.83291272447629      4.94424078047040     -0.15087602375089
  N   5.12679969235674      1.33398522641067     -0.27672711539413
  C   5.84435060124666      0.12290167116280     -0.49090569227291
  N   7.00726932235643      0.08722244268992     -1.07033449137934
  C   5.19955740142541     -1.04112421757941      0.01038276721422
  C   3.89653709167825     -0.98380193204505      0.46601864105914
  H   3.08883154141182      4.52432621655303     -0.68835268986432
  H   7.55298868939028      1.68017965952932      0.36446003560533
  H   9.44046551585841      2.76915340183336      0.94259753551667
  H   7.69726470098657      5.86633844955595      0.32905923504823
  H   5.31266062482398      5.88216915291299     -0.31440785970689
  H   7.23585700030433      0.97918552774951     -1.49843378898636
  H   5.73791208443859     -1.97284829330650     -0.06643706021752
  H   3.42135280630414     -1.89027484126518      0.82189880906735
