21
Coordinates from ORCA-job 11869optt
  Br  0.81141762689982     -1.61627656342387      0.02783531651381
  C   2.47698317116005     -0.73924077959614      0.28361120725758
  C   2.61740002624142      0.62152254500188      0.03119717868439
  N   1.47562068149423      1.22088502127781     -0.44627920053751
  C   1.17112870011436      2.45267043883495     -0.59013643934208
  C   1.96468796038969      3.57144486632394     -0.20200872037802
  C   3.25434511824395      3.64922393400168      0.28139347387622
  N   3.51901824524263      4.97074292599228      0.53142044212785
  N   2.49232535431282      5.68575605483449      0.23931700601655
  N   1.54647614027231      4.86397956808148     -0.20936005271298
  C   4.27183846609734      2.61351434308949      0.46244313584241
  N   5.45316508817908      2.92536702175169      0.87024793427208
  C   3.96771543566727      1.18880840296742      0.16728541545847
  N   5.05138788434159      0.44563982947605      0.08597948017799
  C   5.10929775388556     -0.89693523522946      0.09954841694812
  N   6.09270881491624     -1.63333667304848     -0.25540068950245
  S   3.72462832698668     -1.80267458970579      0.82337431322432
  H   0.19335246064208      2.66682322474677     -1.02383338756177
  H   0.65017128267413      5.23265672005317     -0.47865256827914
  H   5.48951890569214      3.93240811923021      1.02480949996493
  H   6.83881255654652     -1.00897917465959     -0.56579176205078
