26
Coordinates from ORCA-job 11861optt
  Br  1.23651527318790      0.47461207084712     -0.13851487945191
  C   3.14725115595284      0.30899824176055     -0.03952364827069
  C   3.71718273287294     -0.92145623245843     -0.25208801891037
  N   3.04198536364228     -2.00106873238777     -0.88264886309768
  C   2.22251234014769     -2.94868185160368     -0.14957495407108
  C   2.99802937862665     -4.10357747959010      0.57683217571734
  C   3.04550941839441     -3.91977830930005      2.09292592239969
  N   4.11511846571764     -2.91332988622278      2.22982999907658
  C   4.75626432118634     -2.97859125146174      1.14669751236823
  O   4.38009585095831     -3.93797293118542      0.24158532694323
  C   5.76203155557065     -1.98797602102093      0.62983486591107
  O   6.95806267065638     -2.15401411794691      0.79445429405438
  N   5.14864033938239     -0.97616452844103     -0.04892820001248
  C   5.93030921971695      0.21550753781533     -0.42526942695535
  N   7.10808320881564      0.13354118292146     -0.94395173265359
  C   5.26320117315872      1.42702410167280     -0.10893817292913
  C   3.90049768108885      1.46769304322982      0.16598305239471
  H   3.62314803786584     -2.45127223959001     -1.57669069277369
  H   1.51491522800044     -3.39138380611721     -0.85436828868272
  H   1.63686462628357     -2.38562174663662      0.57768182357375
  H   2.68176402591507     -5.09219857248823      0.24875048977150
  H   3.31531487749496     -4.83620138904345      2.62728697443527
  H   2.11382226283933     -3.53093250600168      2.50274820542703
  H   7.42226554391207     -0.83021067512825     -0.97554244362209
  H   5.85876031347197      2.32829764178038     -0.14733425747313
  H   3.41185493514009      2.38775845659687      0.45376293683115
