26
Coordinates from ORCA-job 11871optt
  Br  1.05560944590029      0.00187544134144      0.24400279939306
  C   2.83691990046392     -0.01100336001626      0.96991023210766
  C   3.61208341036430     -1.19816287957514      0.83588374590558
  N   3.23457217852049     -2.39503629607889      0.16746057573199
  C   4.46955548997411     -2.91307913654325     -0.48945865876483
  C   5.64481243467671     -2.20652278618553      0.21590936318044
  C   6.49801833772933     -1.20328547863988     -0.61621974654277
  O   6.66911614881600     -1.25451736559299     -1.80605343973129
  C   6.93274559182851     -0.04848507110511      0.32532732778362
  C   7.00378119818622      1.38835533123165     -0.30457331285940
  C   5.61694411762283      1.94672405056284     -0.03633172233175
  C   4.61630560123271      2.64382324795494     -0.66628070340629
  N   3.40051600101546      2.22601495678153     -0.12280211908147
  C   3.62051409986308      1.18934435359790      0.76620597439444
  C   4.99219764840910      1.12637259610676      0.93486642128307
  C   5.74762228785209     -0.02969537690752      1.29786468450477
  C   4.96508368147158     -1.20858519521535      1.09999455175987
  H   2.48688785208400     -2.22166435818670     -0.49239305731841
  H   4.47946175842056     -2.67280462900740     -1.55811751919366
  H   4.52324383207647     -3.99695253874734     -0.38270276807185
  H   6.32597078560748     -2.91148367782326      0.71044276072202
  H   7.90080651397041     -0.33116649352737      0.75408924235243
  H   7.24449728306161      1.34359344009591     -1.36847104135778
  H   7.79451402799034      1.95198172849408      0.19755310990996
  H   4.63176302578517      3.39613054358479     -1.43898758172810
  H   2.49845734707712      2.43722895340015     -0.51211911864129
