23
Coordinates from ORCA-job 11872optt
  Br  1.01240936652696     -0.10232340493442     -0.10781780877411
  C   2.80062454374937     -0.08008309228523      0.53668821885401
  C   3.49878084250981     -1.27682083894715      0.66535546697152
  N   3.17853308047497     -2.54586177031202      0.15241328192229
  C   4.44440056658048     -3.06996392655903     -0.45886880585492
  C   5.60229247855770     -2.40548877247993      0.33706425115005
  C   6.72305301754468     -1.63024292546937     -0.49456361670699
  O   7.41403881833336     -2.18692419619233     -1.32595172679827
  C   6.64400767871825     -0.20661850363369     -0.12517101954654
  C   6.69474276782582      1.08406965796605     -0.78917675040790
  C   5.54469974894826      1.80085603927288     -0.37941236903720
  N   4.65570950599741      2.70969368240590     -0.85975447557394
  C   3.44201681635064      2.31151515055366     -0.38773075959170
  C   3.52329894135487      1.16441992075586      0.42132558481895
  N   4.89867579400973      1.02519191551427      0.57349133215702
  C   5.53323571411568     -0.14493488237184      0.72207160539041
  C   4.85891950656742     -1.30588642089421      1.03941547227505
  H   2.39946577812612     -2.52534526939596     -0.49304990206002
  H   4.50532928093450     -2.78568496147309     -1.51431484474140
  H   4.46282346170533     -4.15650482248003     -0.39440074607198
  H   6.10533810985630     -3.13284247856990      0.97783229662751
  H   7.37134964524708      1.39132743591272     -1.56856172017972
  H   2.53725453596520      2.81045246361687     -0.69888296482213
