26
Coordinates from ORCA-job 11875optt
  Br  1.32030563670813      0.66673850864918     -1.30452120603379
  C   3.07768893690351      0.17885551852483     -0.68725201480330
  C   3.46992200855419     -1.14457928862864     -0.67179084503844
  N   2.40595800886897     -2.10981635097605     -0.87625792955794
  C   1.82968110096381     -2.75989990892063      0.32767774312326
  C   3.03227079082884     -3.36641701783481      1.04986585093101
  C   3.54154677432127     -4.64241149527869      1.70675294350957
  O   4.97377774642271     -4.36472765499471      1.62820428899554
  C   5.17779975747764     -2.96611530227332      1.40132362730209
  C   3.87696713611070     -2.37268341549324      1.86684461377032
  O   5.32143804189175     -2.70468115247678     -0.01639286733260
  C   4.85653073637186     -1.43936931065419     -0.45151060204880
  C   5.89529882124982     -0.48774874089981     -0.51594718532345
  C   5.78850136081351      0.90352225392387     -0.57018132674735
  O   6.66221961294437      1.75770932771384     -0.67340730592987
  S   4.07220980763111      1.56434877638937     -0.36319517371691
  H   2.75210139289945     -2.84130829911645     -1.48680286745240
  H   1.10604269444512     -3.50001507163320     -0.01778749949884
  H   1.29937388196525     -2.00617967521853      0.91137097778598
  H   3.60678847645517     -3.53100308966778      0.15127523819777
  H   3.35032779932797     -5.55166308146777      1.13752245909146
  H   3.26480434581485     -4.79344201948575      2.75476126413611
  H   6.09804492245757     -2.67900214509114      1.90700758545364
  H   3.74136807428238     -1.32148898838224      1.64479399734342
  H   3.74440126419920     -2.53557402380554      2.93958612375060
  H   6.90763087009079     -0.87404835290178     -0.49093988990707
