25
Coordinates from ORCA-job 11876optt
  Br  1.01908898711878      0.06690880221016      1.03942215353426
  C   2.85664659674296     -0.10134858587581      0.48015385573005
  C   3.51087144812237      1.05982362129337      0.10820001502472
  N   3.09737680595704      2.40157528843539      0.03234736328731
  C   4.33046735893752      3.20785710022767      0.13011073057186
  C   5.37568509642978      2.32333219254822     -0.57744546198562
  C   6.86538402250482      2.46293303894167     -0.16640031892061
  O   7.40711972167181      1.29047294264450      0.41190490523806
  C   7.06899250269465      0.05402486732304     -0.22858659088008
  C   5.58888325577948     -0.18019691805523     -0.10068605463080
  C   4.85110211091659      0.97074012119068     -0.22323735305996
  C   4.88438463891395     -1.32967941252173      0.26349485977414
  Br  5.87867766303576     -2.97255529212784      0.46887336606435
  C   3.53592324659734     -1.29655970361729      0.53011155298441
  Br  2.22646205949695     -3.32279689726377      0.13731404600089
  C   7.69140566654828      2.89525488684858     -1.31044750500581
  C   8.35568934434781      3.24317011270176     -2.24545331910798
  H   2.35360055670628      2.64316102754923      0.67348859157003
  H   4.63210246133335      3.34662985664617      1.17803842181356
  H   4.19859448196170      4.18306689754576     -0.33764543857255
  H   5.29392063723337      2.47962427755050     -1.65759721014139
  H   6.95694078122487      3.22022194489817      0.61648075723589
  H   7.64170956323280     -0.71410828131279      0.28453832819489
  H   7.38606534871614      0.08584749487672     -1.27874126666049
  H   8.94890564377552      3.54560061734283     -3.07423842805911
