27
Coordinates from ORCA-job 11887optt
  Br  0.90604302443089     -0.48676476830710      0.60679067064116
  C   2.81771302813071     -0.31390278223725      0.27916562142905
  C   3.57795068189174     -1.44154737117658      0.39429157257711
  N   3.12273993896914     -2.72258649391792      0.76163575084531
  C   3.17766371192123     -3.71465081699789     -0.30786815883978
  C   4.44900897627618     -4.55354619017842     -0.22658755602518
  C   4.59094024366233     -5.43331098264272     -1.46726039870818
  O   5.30044822613862     -4.64606261573725     -2.42332948956072
  C   6.00416205967134     -3.65461959505124     -1.79981675608000
  O   6.73024370148885     -2.93288061318823     -2.40211533951803
  C   5.73700871717552     -3.73030145123713     -0.30361933727688
  C   5.84430502254591     -2.40287697387086      0.44558538998423
  N   4.93383340939962     -1.36336449682308      0.02596179165498
  C   5.51005116229109     -0.04609899939472     -0.16463312572777
  O   6.73990981510217      0.04613718568585     -0.27238335896772
  C   4.58337102556986      1.01156627312585     -0.20135800710121
  N   3.23928001105426      0.90069000685403     -0.01218473542742
  H   2.19168510310538     -2.64521329461883      1.14315186066020
  H   3.11004086993470     -3.23351526141104     -1.29320387702395
  H   2.31892171965672     -4.38417540758624     -0.21249711623555
  H   4.41807295497951     -5.14707280377666      0.68792927965292
  H   5.16501115861620     -6.34173279013193     -1.26420071101124
  H   3.63272122791994     -5.70940971526435     -1.90870715119969
  H   6.55340183398666     -4.35949853637489      0.07785314608826
  H   6.83787990670184     -1.99194399996903      0.26867762861769
  H   5.73130913445953     -2.61208381087416      1.51711266631792
  H   4.98428333491998      1.99776630510183     -0.39139025976552
