28
Coordinates from ORCA-job 11888optt
  Br  0.62752402675669      0.16801495367864      0.76685277868564
  C   3.02890450939805     -0.05005691913556     -0.15496295664593
  C   3.71308620271465      1.12560737940337     -0.18187681089556
  N   3.06068579995320      2.38302357211579     -0.30194309964946
  C   3.83493498700893      3.43370999987378      0.31676194440678
  C   5.22120545011045      3.41404899688513     -0.32004616693349
  C   5.12099884808208      3.58716654963590     -1.83726835153880
  O   6.39142437273395      3.81197047585902     -2.42193225361327
  C   7.04356552007340      4.88649042967019     -1.82871927081603
  O   7.29896687092191      4.67741051674243     -0.47163417755674
  C   6.09630968919615      4.52037842342811      0.25195396911706
  O   5.88103177654330      2.18858117559084     -0.01875347838603
  C   5.12181657845504      1.05103114391719     -0.05855164764632
  C   5.77855345849189     -0.14797654021598      0.06732307697337
  C   5.06345829700703     -1.38283024375395      0.09693109239745
  O   5.53459224785047     -2.51659712053673      0.20916370827082
  N   3.67553637689234     -1.21614392126498     -0.02059291526887
  H   2.11410534159800      2.29553436909033      0.05887740398816
  H   3.96179179922078      3.30610333645115      1.40392523119680
  H   3.35801772096977      4.39883704918246      0.13594833856422
  H   4.45440798300186      4.43289157936757     -2.05737720452864
  H   4.70717157319021      2.68899139402300     -2.28893014644380
  H   6.43191568703550      5.79976843321579     -1.94340906554549
  H   8.00529350460731      5.00278818921927     -2.32265380168244
  H   5.52959645609814      5.46280610708895      0.23297717548121
  H   6.36544651881768      4.28266902124698      1.28005483784703
  H   6.85314715991620     -0.17206953640107      0.16476689601689
  H   3.13851124335482     -2.07214881437771      0.02511489420544
