21
Coordinates from ORCA-job 11890optt
  Br  1.01773602681334     -0.19121253109141     -0.05448643723436
  C   2.90285733425390     -0.02415278969959     -0.03361196844102
  C   3.53880752868670      1.21265513487775     -0.02973635073950
  N   3.17305707657219      2.55675319791546     -0.03239761628688
  C   4.31254652312611      3.36219585073407     -0.02573501085148
  C   5.41602217976850      2.54885927627511     -0.01890483168832
  C   6.90279423763292      2.36982430495764     -0.01045873800889
  O   7.77439175337391      3.19725694779189     -0.00588002754400
  C   7.14861596393141      0.78682513756854     -0.00818083997879
  O   8.28057423496900      0.30807454333842     -0.00086510590548
  C   5.85194874943357      0.19114756642944     -0.01498812220657
  C   5.22235195802685     -1.10191753520159     -0.01832652215913
  C   5.65571989537221     -2.39095221372378     -0.01560667270811
  O   4.61051080800139     -3.25505083138839     -0.02269039920703
  C   3.46438444450068     -2.52061561791351     -0.02989458855312
  C   3.74587102906862     -1.18348873105400     -0.02798988964214
  C   4.92101232027904      1.23366962077514     -0.02099687208169
  H   2.22834560350868      2.89653234693867     -0.03761712977227
  H   4.20727752192673      4.43469983320348     -0.02689903770392
  H   6.64016702458412     -2.82274018897441     -0.00889847580638
  H   2.54000778617008     -3.07036332175895     -0.03483536348094
