23
Coordinates from ORCA-job 11893optt
  Br  1.56922294921266     -0.30534717071829      1.61489726888898
  C   2.89407944682511      0.11135978408179      0.19016784520492
  C   3.65028681092302      1.27950608524968      0.31958580254152
  N   3.18530820386779      2.53792133832399      0.73009210597230
  C   1.83052178581384      2.97889718513770      0.47274836850606
  C   1.57897471960334      3.17134475419029     -0.99254365246175
  C   1.89654440031186      2.40575913973926     -2.06250696376380
  O   1.48625939377874      3.04128875299326     -3.15835474984624
  N   0.89869361208953      4.22639487464000     -2.75335574314184
  N   0.96035277461637      4.28873572533460     -1.50425685663605
  C   4.23553933988818      3.42523635490080      0.63177055808799
  C   5.36242919143716      2.77653291736994      0.23419912876964
  C   5.02651995052717      1.39504370209869      0.02328909591468
  C   5.88640529979896      0.34044267819064     -0.33529784355900
  C   5.46870383930024     -0.96507158933744     -0.61205463648827
  O   6.11976361809011     -1.94716469117562     -0.94301983503499
  S   3.63377866129849     -1.27441803756279     -0.53123584905857
  H   1.67099137546567      3.93421189347931      0.97423395153274
  H   1.13203855005505      2.25659069258113      0.89138967374847
  H   2.38609705630134      1.45178554188326     -2.16989878246630
  H   4.07423913332887      4.46835588231092      0.85748977729299
  H   6.34426084839233      3.21059867080258      0.13068151983685
  H   6.95098903907404      0.52299551548625     -0.42002018384033
