23
Coordinates from ORCA-job 11895optt
  Br  1.07975751062645      0.11023410291204     -0.58919105810827
  C   2.95789579652173      0.01997084087554     -0.29619007727270
  C   3.58166844631969     -1.18774489410170     -0.08105003727367
  N   2.90937433681023     -2.42707045775877      0.04466479873319
  C   3.59803069253816     -3.56971757957488     -0.57786056759372
  C   5.01710709899518     -3.63306695329587     -0.10790820487808
  C   5.67344319599093     -2.41967047483612      0.13488265118553
  S   7.33572950352197     -2.77589552918855      0.52008436853871
  C   6.98695209411479     -4.48370208720550      0.32597915302201
  N   5.74481433524530     -4.75319759008711      0.00537883059947
  C   5.01951130665421     -1.18093863915865      0.03293260725557
  C   5.63833281035973      0.09634794427004      0.04557604388125
  N   5.00694087262325      1.23595946347262     -0.11270739909809
  C   3.67544881312891      1.22030368351720     -0.31093625127062
  C   2.10508224203274     -2.68588726336628      1.13835148564186
  N   1.69447916704241     -1.91323329521763      2.05593865420084
  H   3.54965376025539     -3.43552149978347     -1.66438825542151
  H   3.06243049266273     -4.48543508572362     -0.33002956244405
  H   7.75531663849324     -5.22649044698882      0.46929192830410
  H   6.71414120739154      0.15057199189948      0.19417393618216
  H   3.17164845395422      2.16233359658768     -0.47552230434747
  H   1.78005304679840     -3.72665752203444      1.15615862289064
  H   2.06918817791873     -0.97149230521312      1.94337063727283
