17
Coordinates from ORCA-job 11898optt
  Br  0.27893346920166      0.56933471612687     -1.04147296082684
  C   2.04183820072323      0.07972713441398     -0.64736865552060
  C   2.98118285053668     -0.07635641470064     -1.60990967365584
  N   2.69593592258605      0.09736451485015     -2.95324444579135
  C   3.56824651563429     -0.18533374144162     -3.86128970728521
  C   4.86580171346264     -0.65468625268070     -3.52915159171661
  C   5.17208415955155     -0.72781766846052     -2.17758327057607
  S   6.79863096893829     -1.18107514880946     -2.01857720366160
  N   6.97559057615115     -1.26501494185281     -3.73000159199202
  N   5.91021645152927     -0.96545846417145     -4.34287394699287
  N   4.29557141812496     -0.43018393703274     -1.21833439687802
  N   4.83751369777457     -0.40359699499557      0.07132680350117
  N   4.05267858376330      0.04320224397687      1.03378856778391
  S   2.46760420033209     -0.28757767704667      1.01409670082226
  O   2.20996278548280     -1.69317754604860      1.21098138103513
  O   1.81336335584019      0.63826646624392      1.89217686778847
  H   3.29084513036723     -0.03461628837100     -4.90056287603391
