22
Coordinates from ORCA-job 11908optt
  Br  1.28894975219889      0.94734013334152     -0.93259646353726
  C   3.09191230597771      0.46319105835397     -0.50436912959924
  C   3.43570001548707     -0.90959581218547     -0.36538856498280
  N   2.44734058980614     -1.89731348301165     -0.55258426791426
  C   2.59497731700853     -3.08657987099156      0.26570455968581
  C   3.88453937744350     -3.78080079942651     -0.13141502824980
  N   4.46045619930763     -4.57927029713865      0.98926847553535
  C   5.44460233346914     -3.47681947308180      1.23864713270049
  C   5.05737878012077     -2.78872713314985     -0.08824880297266
  C   4.74364325101303     -1.32059485402588     -0.09481453277716
  N   5.80855029720525     -0.54436690558572      0.11627252555917
  S   5.65060754995400      1.11162691412385      0.13093306279552
  C   3.95548255319965      1.55172336821528     -0.31129531307308
  O   3.71706518763155      2.75356254378780     -0.38500357997117
  H   1.51847673938489     -1.50365220466058     -0.52815741512100
  H   1.73567749123302     -3.74129026495019      0.10958601147481
  H   2.65392639253833     -2.84331570940320      1.33633372960992
  H   3.74747326337393     -4.32730356782286     -1.06596091428006
  H   4.94688006012947     -5.38531242806453      0.61486552166329
  H   6.47960355809526     -3.80200579395819      1.34397147160774
  H   5.16378547891830     -2.88960880121348      2.11344336685671
  H   5.79997150650383     -3.00488661915225     -0.86019184501031
