26
Coordinates from ORCA-job 11904optt
  Br  1.43762566565701     -0.31687304678327     -1.30014762553431
  C   3.05462898522648     -0.24444811457542     -0.30053513252235
  C   3.39644881526110     -1.24652462166131      0.52118824476022
  N   4.57270565550077     -1.16319160653276      1.29633146108957
  C   5.49190056118852     -2.27144295142474      1.08185785547566
  C   4.66930485995816     -3.58443945644964      1.08433989627662
  N   3.37741354259249     -3.39361831976573      1.74371380986347
  C   2.64305724266073     -2.57251842172134      0.74959737261303
  C   2.79722480836493     -3.45171715769558     -0.50483598226572
  C   4.21829255850261     -3.96302072381422     -0.32402371750835
  O   4.87297056764966     -4.57310479438855     -1.12396988317972
  C   1.26795960920459     -2.38968887659261      1.21192828933013
  C   0.15448738292639     -2.27312856960530      1.63787708778258
  N   5.27612040716877      0.06291593697533      1.40311914693979
  C   4.89866385896119      1.00384264685084      0.54930404527011
  C   3.85480714046755      0.97844722975250     -0.40640931131327
  N   3.54308434679974      1.91612198719436     -1.29601250885493
  H   6.21221198754419     -2.25949530800694      1.90077881428943
  H   6.04793360626024     -2.16190215160054      0.13927250075014
  H   5.23849756964584     -4.40597924696139      1.51636068261586
  H   3.49350852422142     -2.83751760358287      2.58604357206445
  H   2.67251771423527     -2.91082390818376     -1.43903251157217
  H   2.10828930048753     -4.29869635397107     -0.47110742671999
  H   -0.83702548898250     -2.13533766989030      1.99421732477162
  H   5.47607157543952      1.92302914390429      0.62883767755636
  H   4.20429920305770      2.68511195853005     -1.19269368197822
