24
Coordinates from ORCA-job 11903optt
  Br  1.39060100239779      0.09097934750116     -1.14162440384159
  C   2.98645907857260      0.16318828140875     -0.12678126498863
  C   3.71239200442289      1.28477146615487      0.07733155495289
  N   5.08740646319188      1.16541863072465      0.31715277245891
  C   5.67684856351487      2.45177782007333      0.25085794297785
  C   4.70289746591116      3.36205122320684      0.04455626829489
  N   3.46603061499412      2.65189765870851     -0.03865354523393
  C   2.24969881655605      3.28283470190524      0.17034758054957
  O   1.21769692947017      2.70396822222441      0.44351554918615
  N   2.32841567349223      4.64197841306211      0.04635820860238
  C   3.47655755231335      5.46947687651327     -0.06737933192827
  N   3.36984550070466      6.75804877238251     -0.14847999522009
  C   4.74757397866748      4.79303069597766     -0.03734523620418
  N   5.92683107880148      5.39931175627884     -0.04301661930123
  C   5.69195979417836     -0.01602872312273     -0.07168635990918
  C   4.95999861508443     -1.13029806338027     -0.15951544285766
  N   3.57867911947098     -1.08579798478178      0.21269864153788
  H   6.72493186935626      2.61341670842453      0.41772742580935
  H   1.44712751589604      5.10094617116719      0.21571454942508
  H   2.39512788964739      7.04831919060572     -0.14638212558747
  H   5.74540271528729      6.40217802541232     -0.07707643893185
  H   6.73325146606733      0.04825670800834     -0.35366986577995
  H   5.36492727306674     -2.05664311261538     -0.54353566899473
  H   3.43933901893438     -1.31408278584014      1.19288580498382
