28
Coordinates from ORCA-job 11906optt
  Br  1.19317828177158      0.54685771677441      0.52859938400816
  C   2.93900735533427      0.34345001545342     -0.27175048751161
  C   3.43935616992651     -0.91670416163010     -0.44894502273860
  N   3.14048704714688     -2.13343586652615      0.24070235266564
  C   4.44478411466394     -2.64194266240877      0.72091947860153
  C   5.49810477262631     -2.14198766230865     -0.30470435171003
  N   6.67183587792027     -1.42971031588455      0.27270439581247
  C   6.93347177518527     -0.23915608450930     -0.59205031014363
  C   7.66706310038273      0.92154072945103      0.09022459909696
  C   6.69446096511172      1.93906055171946      0.68322232172868
  O   5.73585558600280      2.38982827168560     -0.26675300876871
  C   4.93697353315074      1.32176329608567     -0.64050586940861
  N   3.60015921914671      1.49142442018067     -0.50741002086895
  C   5.53490812007336      0.14287273260320     -0.95580338411445
  C   4.74278728852282     -1.04185201222027     -1.01410304786832
  C   2.13752120496212     -2.99337821858589     -0.11484643013684
  N   1.11545096373930     -2.78592675279259     -0.84315304659110
  H   4.40088897698769     -3.72688282371599      0.82948954772854
  H   4.67631175348592     -2.18965383770407      1.68838555175420
  H   5.82682260935452     -2.96577093074112     -0.95376786882058
  H   7.48726960947172     -2.03188245629162      0.30359947636009
  H   7.50749121007079     -0.54441654806774     -1.48036529896024
  H   8.28466043109653      1.43173557463336     -0.65377391939382
  H   8.33038910163924      0.54868242625539      0.87561371604800
  H   7.23042912623373      2.82700683455529      1.02289449332776
  H   6.16545922289280      1.49741678686587      1.53525250637773
  H   2.25737363482128     -3.97788942661100      0.34255881060510
  H   1.11949894827838     -1.82704959626557     -1.19423456707936
