26
Coordinates from ORCA-job 11917optt
  Br  1.35853497747321     -1.45153584436235      1.35298932306727
  C   2.68403554067150     -0.34014141532386      0.52385149859853
  C   3.00597231388688      0.90373854752467      1.12935362990099
  N   2.01677272267607      1.48597062301253      1.99258471551406
  C   0.86512783687501      2.03256431873748      1.23111706758728
  C   1.30095446372142      3.13726192086657      0.30286393047349
  N   1.23067346278800      4.38587237843812      0.57827496230327
  C   2.06486504388088      5.06351679560390     -0.42921080488352
  C   2.91915162471839      3.93474295440938     -0.97892504950674
  N   2.04536127496559      2.83374139798995     -0.84271206943059
  N   4.15298288067113      4.00459586538159     -1.22026584317054
  C   5.03503393246288      2.83011154873911     -1.36657613824048
  C   4.66344772114053      1.59924854332493     -0.56347564389815
  S   4.59294972169472      0.08966808886109     -1.43817092898231
  C   3.30744924981776     -0.92501609495053     -0.58917664518375
  O   3.11595882827111     -2.01000981035662     -1.11453039165875
  C   4.01803576624316      1.73625336087089      0.65337640569284
  H   2.43480315453331      2.24418214731433      2.51942829456305
  H   0.14464244692921      2.44371147982492      1.93622306635978
  H   0.40674939544310      1.20671636410583      0.68641892333199
  H   2.67639736446986      5.84293329521464      0.01847745903787
  H   1.43362372550237      5.50582968684896     -1.20759541335218
  H   2.38003580203803      1.89017397638085     -0.98141024646417
  H   6.02857733843682      3.20148236901547     -1.09878005759753
  H   5.09122904682568      2.55197677433967     -2.42334124795598
  H   4.04463436386332      2.73041072818845      1.09421120389427
