23
Coordinates from ORCA-job 11919optt
  Br  1.14653778616739     -0.07857774476321     -0.79072503710903
  C   2.83880049181033     -0.19570599316326      0.09764144334744
  C   3.61622753127568     -1.37598024130242      0.07110716176795
  N   3.23497862623391     -2.66062065634931      0.07000771252550
  C   4.38274403903602     -3.36871982583598      0.11209713620064
  C   4.35776125976702     -4.82073142303494      0.13605233074292
  N   3.34654896086871     -5.58536028462277      0.25860133997758
  C   3.83731962680229     -6.95559242911530      0.15582823203383
  C   5.36602298288299     -6.81640873469024      0.21839487946550
  O   5.58241242781212     -5.42718310118076      0.00005509393462
  C   5.54228955639973     -2.53858841891861      0.13927334786266
  C   6.91618519520617     -2.87797412795011      0.18605585598200
  C   8.09557261517715     -3.11399246729321      0.22418274764257
  C   5.02700741234087     -1.23906089087924      0.11259795726867
  N   5.66664504575119     -0.00927393686329      0.08122269645263
  C   4.89623416686712      0.99329916756335      0.01724393673142
  O   3.53877049424456      0.99656871041978      0.00183426656383
  H   3.49917245490462     -7.39820012344409     -0.78718423196187
  H   3.44280060694486     -7.57137081343905      0.96616768638875
  H   5.89929157446772     -7.37726592654052     -0.54870509337793
  H   5.76740543277876     -7.08269922507711      1.20026190851593
  H   9.13289233087997     -3.33820967374814      0.25404725218170
  H   5.27237938138060      2.00764816022853     -0.03305862313731
