22
Coordinates from ORCA-job 11914optt
  Br  0.81257148393920      0.23009002564939     -0.39845721479474
  C   2.68772536516646      0.09563494052559     -0.17305703442766
  C   3.44964244764094      1.27538265549022     -0.24034900375818
  N   4.85701347320288      1.20693838020918     -0.08049252387267
  C   5.48345382185463      2.50457838913251      0.12503864658645
  C   4.26571484232464      3.36522630360899      0.23252483590672
  N   4.00378534884883      4.64252533220822      0.38141561443123
  C   2.63947110462124      4.71034489678333      0.29610883872087
  C   2.08106884371188      3.46902620868518      0.07960232192763
  N   3.14879487116891      2.60711526224075      0.03868207284712
  C   5.44520201592447      0.00822640916613      0.03691270782162
  C   4.73597705916740     -1.17933110664860      0.02028341326212
  C   5.62941089043119     -2.25686915391302      0.14992562787370
  N   6.91785904722551     -1.98410918793382      0.25962755023603
  S   7.12272529428933     -0.33377353915470      0.20470876784690
  C   3.25261104067603     -1.20241922621735     -0.10488852714059
  O   2.64391276209274     -2.28473992640865     -0.14643654048736
  H   6.12353112773428      2.78359593375239     -0.72353451893801
  H   6.10099264029848      2.49715845746881      1.03064650461558
  H   2.11696897419060      5.64748353677427      0.40057248566548
  H   1.06858030298667      3.13408157143142     -0.04219457403906
  H   5.30698724250358     -3.29016616285024      0.16736054971684
