25
Coordinates from ORCA-job 11916optt
  Br  1.64025808082370     -0.75305498684922     -1.44902163667886
  C   3.21537767864119     -0.23218763378902     -0.54088189959216
  C   3.61665821776051      1.05418934717951     -0.31753843210498
  N   3.04400239859707      2.29772761347623     -0.54405962167891
  C   1.63296667249928      2.58939661370511     -0.49766353251905
  C   1.06607212502301      2.41796884224186      0.88459779954971
  N   -0.19690621127773      2.49038346791694      1.23133450255552
  C   -0.21298856633552      2.28961170224166      2.58865821810755
  C   1.05494727642674      2.09321372265206      3.05650695028305
  N   1.86100319506748      2.18010577694101      1.95358578337991
  N   3.85895093690970      3.30365780812341     -0.05192427853433
  C   4.95443354117373      2.69012358138033      0.38523994914808
  C   4.90128888802571      1.28785883460032      0.26527346647673
  C   5.77260033107286      0.22066328363665      0.57901770330867
  C   5.37435268456072     -1.11153005772895      0.34704030914618
  O   5.99681783033410     -2.15254778178153      0.60453650366692
  N   4.09949087480220     -1.26458878231536     -0.25678521050570
  H   1.08457119112935      1.95661511614338     -1.19186041602263
  H   1.51540784050846      3.62702108234342     -0.81078145370519
  H   -1.13246699090956      2.29120520308614      3.15128700505950
  H   1.44468590718722      1.89673943361906      4.03934618368076
  H   2.86847861260212      2.09292501463825      1.91216847930442
  H   5.77319983512171      3.28216412322793      0.76767256651484
  H   6.74531422515229      0.38160796965562      1.01906960372053
  H   3.77148342510358     -2.21626929434484     -0.28781854256059
