23
Coordinates from ORCA-job 11918optt
  Br  1.00926184195814     -0.14640596895013     -0.67605847245741
  C   2.80831013096432      0.05436189932615     -0.18587292025934
  C   3.41902595024954      1.27914450656399     -0.20490649829148
  N   4.78742508847849      1.37349437158457     -0.07590000450402
  C   5.28473190769821      2.75044206812756     -0.19146264220706
  C   4.05614634930536      3.47938513985225     -0.67704027497393
  N   3.73351955601186      4.72150897695215     -0.27461938748710
  C   2.29411730354870      4.71175496039989     -0.25492699353770
  C   1.72122161432573      5.66795727907402      0.69892500232657
  N   1.23600301656235      6.40139550907724      1.43553329560425
  C   1.87735064709579      3.25759007733970      0.07898163945574
  N   0.86925801688485      2.80055176189718      0.68888757332352
  N   2.94374911679660      2.54403269528869     -0.43836226467061
  C   5.54444560846414      0.28079021223957      0.17039428004529
  C   4.99118121634024     -0.94370598363919      0.29160782276782
  C   3.56104768910841     -1.16100105346303      0.10529690640004
  O   3.05980672856519     -2.28067373392757      0.16042251812882
  H   6.13099568249768      2.77701049618320     -0.87941118859396
  H   5.61297080954427      3.11795681624638      0.79415998135535
  H   1.84319295077286      4.94333998518437     -1.24306290316315
  H   0.26853124698579      3.56791521365812      0.98519135662476
  H   6.60750597514567      0.46440184120854      0.25960669521288
  H   5.60420155269574     -1.81124707022373      0.48761647890071
