24
Coordinates from ORCA-job 11913optt
  Br  7.06928938357131     -0.04992443194455      2.94341882981459
  C   6.16265767316263      0.21876412488012      1.31592905179226
  C   6.59650949059695      1.04467142157703      0.31060412952455
  N   5.72585360847660      1.12504430459959     -0.77622856983426
  C   6.16910783267247      2.05532852124067     -1.79160825480241
  C   7.51022068811461      2.49742897217316     -1.27337577636196
  N   8.28422093445032      3.18016848816847     -2.07236818298285
  C   9.46242465422366      3.46880758670468     -1.38578159941413
  C   9.41399915192151      4.01285389646279     -0.15344496757963
  C   9.86849457567766      3.04993037970458      0.88704002616818
  N   10.95134930006732      3.10543268297310      1.58620307534096
  C   8.84909857326488      2.01582690947524      0.92483754129122
  C   7.73742037014949      1.90200501141781      0.05122812371678
  N   4.57712757380693      0.50970613487546     -0.91339216253660
  N   4.16801127401793     -0.27814919154554     -0.02559003000476
  C   4.92503212363723     -0.51105622347271      1.16289856861422
  N   4.47107310248310     -1.33766273789362      2.02855211346567
  H   5.46951579276380      2.88944965271068     -1.87594999149432
  H   6.25460018795691      1.56565963188590     -2.76134219179102
  H   10.36285033741417      2.98160587190818     -1.75771803562802
  H   8.46885482442791      4.49301542279618      0.09244725265237
  H   11.00964201835609      2.27148311200630      2.17401062199209
  H   8.91359745299163      1.31335331320043      1.74363044455907
  H   3.58904907579480     -1.70374285390397      1.67399998349801
