23
Coordinates from ORCA-job 11921optt
  Br  1.47771817696132     -1.04109860989719      0.80385475142850
  C   2.52787067204097      0.35329172653207      0.06196207835668
  C   2.84217921843027      1.50486042093108      0.79213830505695
  N   2.19986074942643      1.73762064972113      2.04910912194418
  C   0.79356356775675      2.19494807466293      1.89642510076333
  C   0.83239002812678      3.46337001633592      1.08760660939621
  N   1.13750009513253      3.41628181140859     -0.17275985740493
  C   1.83238496817130      4.53882953507946     -0.51884774161270
  C   2.71294077190511      4.50867213852696     -1.75287266684526
  O   3.16973030461317      3.23182975150030     -2.10012134482265
  C   3.87003864781566      2.41223550018245     -1.18008525095045
  O   3.88309304781370      1.15597716727577     -1.71857564451099
  C   3.11182076265111      0.10456901086083     -1.20952100389788
  O   3.05899577325976     -0.90178817789505     -1.88218755214309
  C   3.61629043259463      2.50111962929889      0.22831022914189
  N   1.92258755410293      5.52173043035091      0.33887706046137
  S   1.22509072219258      5.01718197720524      1.75165538361263
  H   2.71746612340144      2.45790164026024      2.54153644998074
  H   0.36961191810073      2.34091793834197      2.88901879810698
  H   0.23763877643024      1.42479748093353      1.36590894962147
  H   3.54098527625779      5.20050129944348     -1.56231184396643
  H   2.16257374763260      4.86430354759606     -2.62598942012202
  H   3.75266866518214      3.43994704134434      0.75086948840547
