22
Coordinates from ORCA-job 11926optt
  Br  0.99218813711883     -0.30719184047858      1.11446514647202
  C   2.80913150266610     -0.21383767449557      0.61660517973736
  C   3.53860495732487     -1.29422477988686      0.32971717960200
  N   4.93755203523484     -1.24168415678947      0.18655112425297
  C   5.43791782123388     -2.51855159914708      0.32636781262124
  C   4.42821282357711     -3.40440935644157      0.41587917955142
  N   4.41394576063714     -4.76783762396526      0.52798110086036
  C   3.30297954845466     -5.32735484307944      0.24628023921463
  N   2.18137370656741     -4.64431641819807     -0.20746909507687
  C   2.16693177264335     -3.25398387186676     -0.39717920147332
  N   1.33936729035499     -2.60759223778703     -1.10286683084890
  N   3.19083359015795     -2.66585709204017      0.32793511416817
  C   5.67907796000550     -0.14969812999405     -0.37931083347929
  N   6.83368846450622     -0.34341923132452     -0.96260400416189
  C   5.11244718928809      1.15814574108902     -0.25910599522366
  O   5.58891056950904      2.20982028441645     -0.67558920950544
  S   3.54277351629317      1.36840352883197      0.69303684669081
  H   6.49479371522371     -2.70954791478365      0.37469672469347
  H   3.19000471378475     -6.40256690384964      0.31915514587476
  H   1.44308853375834     -5.16559794252999     -0.64666238294863
  H   0.65045895102154     -3.22158331802067     -1.52769611082506
  H   7.01271744063843     -1.33611461965904     -1.08518713019615
