22
Coordinates from ORCA-job 11923optt
  Br  1.27267586277335     -1.13332462264772     -0.18088526333938
  C   3.00946775714980     -0.43009041941845     -0.24341384967803
  C   3.25395721673273      0.94149891832763     -0.19750049902480
  N   2.40471841223863      1.95184765889739     -0.32969081222533
  C   3.16401697962661      3.06413921284978     -0.25478868394302
  C   4.51505955369293      2.78083643839125     -0.07334398826956
  N   5.51216470805693      3.67806075896143      0.01055291203781
  C   6.77147641515203      3.35330687495412      0.15763703430020
  C   7.71883339891608      4.53492596478377      0.17163166005469
  O   7.42036803285008      5.69153767327282      0.04606648250046
  N   7.47034468981741      2.22868484295871      0.30395902644508
  C   7.04328491380761      0.93953012226589      0.36143400975696
  N   7.88111329424876     -0.02763473956511      0.57443439826849
  C   5.63114229034521      0.49834236133062      0.17824273855570
  C   5.32979902158541     -0.81452886749650      0.20545165521789
  N   4.05093424983550     -1.29106622874399      0.05000009777071
  N   4.56476095392569      1.39669457276633     -0.02769060613997
  H   2.74955934017482      4.05604247461360     -0.33503335396578
  H   8.77096085181307      4.22198310584424      0.31091608866828
  H   8.79984847197906      0.40108911810710      0.66751900853186
  H   6.11880827172662     -1.53293978687394      0.35686116729866
  H   3.91270531355155     -2.27493543357900     -0.10435922282094
