23
Coordinates from ORCA-job 11939optt
  Br  1.13093186460345     -0.34257224651510      0.61069536090447
  C   2.95312969059226     -0.35494932631992      0.10266655457186
  C   3.75049913467591     -1.50466643000798      0.28317216185349
  N   3.27816999902942     -2.69228962737650      0.88644779255618
  C   3.21930583522844     -3.80855066668930     -0.04026253831559
  C   4.55608861114168     -4.54074466981345     -0.10742460298009
  N   4.60577529302840     -5.46831863616685     -1.22795909557528
  C   5.10281863677664     -4.81267798354156     -2.34095523429671
  O   5.01264948438803     -5.16444019338705     -3.48264417117338
  O   5.74708427940915     -3.70119897305742     -1.93201205020547
  C   5.78711481054661     -3.70020646239674     -0.48982963937222
  O   5.95874983154378     -2.45395947308757      0.03560304990873
  C   5.04901377835414     -1.42819833344196     -0.19928382379237
  N   5.61187768117300     -0.40252537370414     -0.79517358926609
  O   4.79814840839343      0.73260210288472     -0.91767521952550
  C   3.46540770340439      0.80035234005208     -0.52533153395251
  O   2.89395810543513      1.84443549276608     -0.76985135324795
  H   2.37225290217078     -2.51943453014673      1.30066261665490
  H   2.93658534794764     -3.48377909292609     -1.05087529062137
  H   2.46811551241729     -4.52562352000262      0.30496851419720
  H   4.75047009120583     -5.03527354552611      0.84442164014629
  H   3.83653417480045     -6.09439840475209     -1.41065107256634
  H   6.68231882373409     -4.25458244684368     -0.19770847590223
