26
Coordinates from ORCA-job 11931optt
  Br  11.95519604398620      6.06686188737391      1.44334039334138
  C   10.59715501646863      4.82154918493114      1.89916693334078
  C   9.27850689847702      4.98188000963359      1.45192297915028
  N   8.86456727983495      6.19370425692276      0.87581435991263
  C   7.77404453258372      6.08060750676735     -0.06635193971910
  C   6.56418116191593      5.49954923283677      0.65296586498140
  N   5.52287857056601      5.14992004020983     -0.32961718912990
  C   5.55390361436703      3.88728118086951     -0.40602894650858
  O   6.36416542305984      3.17904315179215      0.38390927037822
  C   6.91656033264147      4.17695487026167      1.34371004647558
  C   8.34689116589958      3.95638241524524      1.65030660268464
  C   8.70310514269381      2.77290931890768      2.34089952130687
  N   10.05949265409663      2.60761417579204      2.65499179802362
  C   10.69791712802585      1.53813854596266      3.23524191710639
  C   12.00552099174724      1.92001850472708      3.37109020324436
  N   12.20052233909232      3.18914423702077      2.90368820378518
  C   11.00741581872902      3.58694719378816      2.47751672767562
  H   9.64656236144773      6.73406358110906      0.53504273134636
  H   8.01918181062624      5.41467546326064     -0.90707760599832
  H   7.52817373334292      7.06620027168293     -0.46350274610404
  H   6.18591028239840      6.22845203685267      1.37032313694363
  H   4.95197693043394      3.30164413732174     -1.09304143836643
  H   6.29835075252729      4.02701000980629      2.23778090977344
  H   8.11342421193060      1.86924847240805      2.29709941326184
  H   10.16629331402381      0.63865820327831      3.49313998487403
  H   12.81810248908362      1.34154211123794      3.78266886822007
