24
Coordinates from ORCA-job 11942optt
  Br  0.98381361175832     -0.14246069232389     -0.19516462880575
  C   2.88211155065100     -0.08293539651647     -0.13598768771445
  C   3.49686964407712      1.16260712686004     -0.12922663223328
  N   4.91583838438920      1.15749493224576     -0.11359862302838
  C   5.48410534061382      2.50002498586690     -0.08368136033343
  C   4.24055505873496      3.33423864220733     -0.09736006097676
  N   3.98008287334809      4.61800831850394     -0.08597720692300
  N   2.63424460901984      4.66329572537690     -0.10265203378600
  C   2.03778862522432      3.42483282097442     -0.12552642743265
  C   3.08104494329373      2.51662657056516     -0.12215958416910
  C   5.68247796458577     -0.01374129861421     -0.05949615701116
  N   6.97549986727755      0.01651851408204     -0.01130800751841
  N   5.01202935122263     -1.20517124107047     -0.05658269669440
  C   3.66904174759206     -1.21957779544509     -0.10129400505591
  C   3.05806721023227     -2.60477807523250     -0.08273244317236
  C   2.58419330508734     -3.06156923043032     -1.39233693021984
  N   2.19871314881241     -3.44213390747755     -2.40410123689487
  H   6.12919670182993      2.67996017337068     -0.95163628848812
  H   6.08809490192286      2.65324483010564      0.81903161676623
  H   2.17975348998830      5.55692722726125     -0.10447830722572
  H   0.96839441491543      3.31406116532081     -0.14081859239023
  H   7.31257530573594      0.97306989747223     -0.02403359413947
  H   2.20765100698417     -2.65538547105298      0.60049773014216
  H   3.83085694270288     -3.29315782204962      0.25762315730490
