21
Coordinates from ORCA-job 11948optt
  Br  0.86495871648062      0.90476332635373      0.06121249143631
  C   2.72427050007887      0.71165282185771     -0.02533098000059
  C   3.56977486185751      1.80488446885327      0.00345925637569
  N   4.94714370686661      1.56549273567921     -0.06339160217345
  C   5.64135990446102      2.74039456902385     -0.02000385300661
  C   4.74529150624644      3.77500468700616      0.04081401480545
  N   5.21546996000678      5.09004865920707      0.16246737817868
  N   4.51013494500145      6.06882324548637     -0.10129137609247
  N   3.22442579890706      5.92795386778858     -0.57781711322440
  C   2.11594703272566      5.15246700283395      0.01318900881165
  O   1.10213008421695      5.80921659961396      0.17411936825497
  N   2.23570164453239      3.84174132777156      0.23496760179323
  C   3.40922164073813      3.23591801240513      0.07845228212089
  N   5.52468270634439      0.36468404319607     -0.16070765204971
  C   4.72803261017798     -0.64336540967347     -0.19205737040251
  C   3.26209238090247     -0.61249279256822     -0.13403060040771
  N   2.53495681729405     -1.68824737375308     -0.17994442481179
  H   6.71735802473623      2.74507654531577     -0.02722762253408
  H   2.86028664184941      6.86489866907854     -0.68150972484095
  H   5.20953315513642     -1.61296492012709     -0.27297903329487
  H   3.14122736143949     -2.50295008534912     -0.26139004893773
