22
Coordinates from ORCA-job 11940optt
  Br  1.16234740165938     -0.07237304285056      0.30878164559957
  C   3.04840894896918     -0.04276097630793      0.16793963498173
  C   3.70363606893034      1.17170851969443      0.16932414260362
  N   3.06513995578754      2.36344802486799      0.31935848354831
  C   3.62595182214449      3.63441185632406     -0.11306014819172
  C   5.10853878482468      3.63223945330848      0.05512205266405
  N   5.73453565989921      4.81783993697511      0.08386461797114
  C   7.08040257221439      4.79164634840757      0.18193553957274
  O   7.81671248313056      5.74814654055244      0.22110512273518
  O   7.74864237634403      3.55622991949096      0.24607522628424
  N   7.09642178150793      2.32905518060828      0.24021509087627
  C   5.78766872820748      2.43369175525099      0.12920358223628
  N   5.07220583282229      1.19272062090079      0.06610848215545
  C   5.76529945330446      0.01275515822310     -0.03784589240359
  C   5.15800956428104     -1.18695359887790     -0.03784524623076
  C   3.71379439417539     -1.31956800380982      0.07193259851752
  O   3.13670470740496     -2.40576301618085      0.07087531696462
  H   2.06103671485321      2.28519878561027      0.30689680804012
  H   3.20664733288243      4.43348940441223      0.49986754260540
  H   3.36572815254840      3.85161817884400     -1.15912492145839
  H   6.83311614548989      0.14459494615968     -0.11297853256091
  H   5.74105111861865     -2.09237599160333     -0.12275114651086
