22
Coordinates from ORCA-job 11949optt
  Br  0.94398288841034     -0.00851611019624     -0.47405680141412
  C   2.83293613614385     -0.10857278772517     -0.36778003917665
  C   3.50891172703855      1.11050129313956     -0.26756634659272
  N   4.94242323198340      1.13438580463361     -0.30589356561455
  C   5.50208044237258      2.43009895181761      0.06204509648587
  C   4.25425743724513      3.26225341187378      0.07733617478989
  N   4.00606377968555      4.51584778955315      0.23584830626053
  O   2.62504195442523      4.61767801545463      0.17204486040397
  C   2.07968162723255      3.37004281129560     -0.03320630916466
  C   3.09375344876661      2.44856816797273     -0.09975796126136
  C   5.57830696134637     -0.06213390079077     -0.14122084357855
  C   4.87829771266935     -1.25000862785252     -0.18877234399178
  N   5.85683805955495     -2.16244224771883     -0.02916878045514
  N   7.06054542544956     -1.60040196794942      0.11397131293843
  N   6.88859001775468     -0.29991374398323      0.04514490998395
  C   3.43337251401664     -1.39264607947164     -0.35726434100843
  N   2.79611101618111     -2.53826450139442     -0.45005310438535
  H   6.24276650278195      2.76838994259875     -0.66379951469657
  H   5.97965245671302      2.39039575780098      1.04768353328807
  H   1.00854103275504      3.32552325723463     -0.09366479626568
  H   5.77133712673963     -3.16404608575755      0.00533189691379
  H   3.45950850073382     -3.30873915053524     -0.41620134345893
