23
Coordinates from ORCA-job 11944optt
  Br  1.25126069687106     -0.22971899572381      0.29174100782093
  C   3.14238046676689     -0.10213263250173      0.21031234149466
  C   3.86929561659717     -1.24396100351783      0.06127513372373
  N   3.70837040446717     -2.61941410313873     -0.25155293414588
  C   5.05990834674328     -3.26746925683849     -0.29631127254496
  C   5.99368246190392     -2.08179011488776     -0.19934905678619
  N   7.23764392436251     -1.69140014598067     -0.27506157476137
  N   7.24355391924171     -0.31340684799264     -0.09353669051033
  C   5.98780295865188      0.08843271588627      0.07983210622594
  N   5.21561810652286     -1.02110668512545      0.02690540201731
  C   5.22407693784075      1.31567918158716      0.26635849264035
  C   3.79700822950545      1.14417572594898      0.33531197657098
  C   5.87136443323828      2.57278057332991      0.34232254732454
  O   7.09267037193954      2.76900560127547      0.34634607491303
  C   4.96556845072678      3.83240496354779      0.36226139648128
  C   4.28659050573989      4.07521570052438      1.63070317244535
  N   3.74101192743096      4.28076282427295      2.61958147746967
  H   3.04097367043731     -3.09896259453577      0.33479452663430
  H   5.18181969389711     -3.81818773478878     -1.22978091053689
  H   5.19693842543660     -3.96439175114690      0.53507755045699
  H   3.16985618980627      1.99662898775582      0.55124525832672
  H   4.20193694144617      3.77424644751812     -0.41719902746163
  H   5.62066732042632      4.67760914453171      0.15672300220143
