21
Coordinates from ORCA-job 11947optt
  Br  1.04397937606234      0.08257250824494     -0.43733948983819
  C   2.89568463289027     -0.10607465412189     -0.15524420499749
  C   3.55157979350118     -1.35692372939517     -0.19486932190592
  N   4.94561066298555     -1.34318178598662      0.05509450978606
  C   5.77275809668986     -2.40642894749729     -0.48012057294401
  C   5.14711741448661     -3.70139411399273     -0.13452839615042
  N   5.72551095108642     -4.81883431953598      0.14435709632568
  N   4.66901864736762     -5.67163016565157      0.33716835636205
  C   3.43029948859850     -5.08156423920197      0.21717790451741
  O   2.35278531078146     -5.59851426578731      0.38871047991725
  N   3.78458018965849     -3.76785413143561     -0.12503595959126
  C   2.90850170885644     -2.62429278103904     -0.37886807620714
  O   1.74940380265896     -2.85103737901979     -0.69736621646504
  N   5.64900254635922     -0.23165750602244      0.31781373088735
  C   5.02485528479805      0.88340473245743      0.40622902561862
  C   3.58454728908722      1.09120031322147      0.16612295748990
  O   3.11327332503389      2.23109866981270      0.25502770684989
  H   6.76292427207382     -2.32288857895224     -0.04213277683990
  H   5.85362681370806     -2.31204775587594     -1.57319218951377
  H   4.81887863445173     -6.61518591687858      0.64169378507753
  H   5.61806175886425      1.75623404665765      0.65330165162140
