30
Coordinates from ORCA-job 11958optt
  Br  1.25319254204883      0.43397954128985     -1.95333356259641
  C   2.95045118750819      0.22504535682113     -1.01095826128832
  C   3.18711616855771     -0.97490805220221     -0.29526572997758
  N   2.69639863012202     -2.24066395485036     -0.74577852886258
  C   1.96135283076995     -3.03006624286884      0.22383400562836
  C   2.83827538491837     -3.57861293875697      1.34509790158493
  O   3.94940223667326     -4.31840274949067      0.85623868222730
  C   5.03296237673695     -3.41032816837866      0.62146518718118
  C   4.71247029731238     -2.09805328905135      1.38614744779578
  C   3.50034281956074     -2.53173809996727      2.23949619111280
  N   3.88452030456302     -3.18173925890917      3.48604930952821
  C   4.20934213985229     -2.49045570265833      4.60974931564936
  N   4.76201529030903     -2.91140661385211      5.68046422942611
  C   4.37733416764396     -0.92448753258673      0.51148180620728
  C   5.15612630256806      0.20188192750276      0.50763423333438
  N   4.92614618062498      1.32996846319861     -0.21600349603928
  C   3.77450019871375      1.31213201073930     -0.92999888725561
  H   2.14475387600348     -2.12260949609446     -1.58533297452967
  H   1.53792906792846     -3.89217237931531     -0.29839275558299
  H   1.13740108754645     -2.46273286824148      0.69011853589196
  H   2.23149503634416     -4.26179120704102      1.94600148240316
  H   5.13443311926965     -3.21970967191260     -0.44657544693941
  H   5.94021627107178     -3.88861512507786      0.99836354165591
  H   5.54368438898189     -1.82664978971736      2.03949895559137
  H   2.84789541990493     -1.68753627797955      2.46208643514577
  H   4.25160773704037     -4.11936525496728      3.39100993290961
  H   3.91296652920131     -1.44158027993803      4.55921564149804
  H   4.99900487447417     -3.90154346431141      5.60063695889114
  H   6.04036566689077      0.22440257865144      1.14309523676985
  H   3.49929786685902      2.23075853996599     -1.43904538736072
