27
Coordinates from ORCA-job 11968optt
  Br  1.10976852588468      0.17156017624295      1.30076520082950
  C   3.06409861509692      0.07152112807734     -0.32100683579961
  C   3.73578061551914      1.23924767765665     -0.37611532026204
  N   3.34046604669672      2.59757478898882     -0.18741746117288
  C   4.52193675124068      3.25866345243695      0.40685612657264
  C   5.69116914145697      2.56747039245032     -0.32900496588298
  O   6.98065592297014      2.58826234871765      0.27133188527862
  C   7.36899725811399      1.36071443952258      0.84712891154352
  O   7.21565281044177      0.24586000924883     -0.00436206717665
  C   5.87814273850149      0.07963123369750     -0.28361702528716
  C   5.14087907389198      1.19156321293634     -0.43461781900338
  C   5.21356216481811     -1.20140118482358     -0.19973196145058
  N   3.82437727098432     -1.07806731698940     -0.31137327454345
  N   5.85802710020191     -2.31088891137648     -0.03600075754432
  C   5.04543273182256     -3.49337319153841      0.09266588987576
  C   5.85455511685932     -4.69156917473155      0.34125788960915
  C   6.48564091927978     -5.68910350011816      0.54793687453441
  H   2.50847258649406      2.64709157117200      0.39254136926730
  H   4.62093730269783      3.04814810794573      1.48051644423768
  H   4.49298060661476      4.33589461815629      0.24833754288154
  H   5.80480361069591      3.01256124867800     -1.32209692393954
  H   6.78740726383805      1.17355721441148      1.75705294901836
  H   8.42984434456815      1.45273098601449      1.06351324962135
  H   3.29509243503251     -1.93266942764008     -0.23991570660893
  H   4.44795683283961     -3.68899744319446     -0.81452755660279
  H   4.31879024053013     -3.41423706438769      0.91892300750748
  H   7.05957197290832     -6.56374539155409      0.73296033449703
