24
Coordinates from ORCA-job 11969optt
  Br  1.50374322539342     -0.02271494466326     -1.07947139558671
  C   3.16399540588027      0.17264963544978     -0.20312279988498
  C   3.79674714072521      1.34081023116241     -0.00898930740744
  N   3.55871157544805      2.65797788554685     -0.48950631634841
  C   4.87506451850676      3.35801977744824     -0.48319846453107
  C   5.85796155141336      2.46264823079786      0.29061527350204
  O   6.31247807255112      3.07158543808689      1.59110235131885
  C   6.93947067764031      4.23113812825702      1.55989590272958
  O   7.18219591929872      4.90653797433749      0.59761723312428
  C   7.09732353041432      1.86373835302427     -0.41192889844319
  O   7.70527508461107      2.35997439959662     -1.32096456869799
  C   7.26837191946763      0.41067220043026      0.09699274356901
  C   5.84266850446725      0.04566513004740      0.41593726272447
  C   5.10870142529490      1.23793541019561      0.51145449731122
  C   5.13785645766458     -1.14961858244896      0.16120444530290
  N   5.52562869485864     -2.35616348059875     -0.06732076550372
  O   3.72155348114554     -1.00522894499985      0.21092804121405
  H   2.86120847849087      3.14993879927043      0.05316288260748
  H   4.78395670260704      4.35203067014058     -0.04948053151626
  H   5.23863185992282      3.47542531752882     -1.50554832190917
  H   7.22031169396509      4.52314565931398      2.58457520878044
  H   7.94722219130324      0.40882787651788      0.95860324931942
  H   7.72020538676307     -0.19517033842331     -0.69031060208286
  H   6.53871650216658     -2.38482482601828      0.02075288040805
