26
Coordinates from ORCA-job 11967optt
  Br  1.10011128602468      0.03746796234262      0.11653853129417
  C   2.97404018871482     -0.14054047535469     -0.04781176083827
  C   3.60148602590161     -1.33305767751260     -0.01961353566158
  N   4.95356527135664     -1.37066073006887     -0.04620433439188
  C   5.49821084581195     -2.65231698550322      0.31572348201469
  C   4.38547201316971     -3.60039121582764     -0.08742877868631
  O   4.57506334297511     -3.90730844179551     -1.45771181583396
  C   3.43222171705254     -4.39255449588834     -2.08480367292070
  O   2.40433539930257     -3.45727651184008     -2.08310248202966
  C   1.95255735407655     -3.22338026682801     -0.76840877996832
  C   3.09050641990944     -2.75737226519040      0.16016096995898
  C   2.66777388016103     -2.93435263288623      1.55138025532055
  C   2.33396402269997     -3.09830233816559      2.69059877560497
  N   5.78054901094944     -0.26176790506507      0.07426904538317
  N   5.17134410465410      0.92488648571649     -0.07332532600519
  C   3.81495160001874      1.07140596668719     -0.15243789292628
  N   3.23353809401271      2.22042922888537     -0.29640743596365
  H   5.70616224476375     -2.70831566383838      1.39290045817261
  H   6.41571396245873     -2.85292416114527     -0.23756073366396
  H   4.35616407520200     -4.52646928482664      0.49636695813991
  H   3.09044785947506     -5.31583194519851     -1.58320120120400
  H   3.69651199499414     -4.59504388559685     -3.12004905090157
  H   1.54033881873809     -4.15452083498148     -0.35528738369934
  H   1.16935661332159     -2.47442454950813     -0.81608496823933
  H   2.03168081560623     -3.20572502223789      3.70383712084752
  H   3.97593303864877      2.91834764562778     -0.33933644380256
