22
Coordinates from ORCA-job 11961optt
  Br  1.05383768599055      0.25226803837455      0.06869683950044
  C   2.93570902957087      0.20274842799362      0.06917985708548
  C   3.65462217292922      1.39353412601739      0.06954479226755
  N   5.04621403345415      1.32988682009652      0.06972323270809
  C   5.61228590280316      2.61655764669520      0.07006437242804
  C   4.57976110398745      3.48740491248107      0.07009933669399
  O   4.64266929503542      4.84342378339124      0.07036659796301
  C   3.39812450202841      5.46485593986606      0.07049203703510
  C   2.22819647431394      4.74049723442660      0.07027192896925
  N   2.13323924370885      3.40196146618500      0.06989675892851
  C   3.32641989902162      2.78382843749770      0.06981566983966
  C   3.45419743925025      6.87094888782202      0.07087611359021
  C   3.49542664279509      8.07680818534873      0.07066804893972
  C   5.70010777197245      0.14180159508868      0.06961957495959
  C   5.02434032231779     -1.02646801368364      0.06935440241909
  C   3.56412464127950     -1.09144698896739      0.06911023496873
  O   2.96660491592830     -2.17632277882412      0.06886075324505
  H   6.67842566962059      2.75447218112620      0.07022507293364
  H   1.30408153489188      5.30694202605288      0.07039924344602
  H   3.52831402006043      9.13840969250341      0.07068758007095
  H   6.78086601902008      0.20562773686439      0.06977277884272
  H   5.55943168001993     -1.96573935635616      0.06927477316516
