23
Coordinates from ORCA-job 11974optt
  Br  5.54227549192687     -2.79472102492085     -5.03297974931555
  C   6.13668554542418     -2.64709760740878     -3.21304196526187
  C   5.18508441600917     -2.43625557461705     -2.21606181870050
  N   5.78710153502039     -2.02489961318224     -0.95621190654789
  C   6.12227994923631     -0.64413532455044     -1.17570815087433
  C   7.14372742445871     -0.45351102379299     -2.02769890841202
  Br  7.99266773324082      1.21660513657239     -2.36254620300772
  S   7.69440789231434     -1.84077490159641     -2.98190768773208
  C   5.12286462607138      0.38186221430705     -0.70895113908010
  N   4.73636714136083      1.34583863631500     -1.44210213303856
  N   4.65843949138711      0.29849618228818      0.60450170432932
  C   3.42532975749453      0.26726141066238      0.92911952210080
  N   2.29497280464630     -0.03905701189521      0.21961638040019
  C   2.14353169869528     -0.79069838980654     -1.01327752173388
  O   1.19017683833515     -0.51718514212511     -1.72847762385259
  C   3.17470352647581     -1.75368931863646     -1.13549509851709
  C   3.80431344030155     -2.20571657213113     -2.29180112169198
  H   6.64975153950845     -2.54543964598030     -0.82664441230120
  H   5.19588328767620      1.31361605644978     -2.34878218517749
  H   3.19793032926521      0.51004786174492      1.96924905960977
  H   1.42709784262101      0.31460142098475      0.59318974085558
  H   3.74835137164336     -1.88317386509279     -0.23413022443605
  H   3.32005631688696     -2.18397390358817     -3.25985855761472
