23
Coordinates from ORCA-job 11973optt
  Br  6.30933286438930      4.00134032076096     -3.37584264719847
  C   6.42216054113904      2.52344624907536     -2.22475857494008
  C   5.48652924046312      2.11290645568775     -1.36322009647697
  N   5.84906717815905      0.91608421249176     -0.65161329266632
  C   6.25718090752985     -0.06506195524596     -1.62381180585115
  C   7.17163710641444      0.37939702855035     -2.48742234175212
  Br  7.96871237151677     -0.60860023479237     -3.87225449435695
  O   7.50606995552473      1.70175900344200     -2.50136989550338
  C   5.29700620671707     -1.18836874232322     -1.82427137599273
  N   5.53936492604537     -2.39949850065689     -2.09598175516128
  C   3.90514439829102     -0.54760173119649     -1.73973015833284
  O   3.59699271720175      0.17893716795926     -2.70144409649990
  N   3.28520630562736     -0.76980534155082     -0.60731403354091
  C   2.51700257795545      0.08371691891595      0.09018074864825
  C   2.67061087610682      1.45814488443076      0.38089257270942
  C   3.46070537592932      2.49576871746655     -0.06892495781369
  N   4.18449319843463      2.58509697706608     -1.29742986006847
  H   6.58063104277928      1.08099473969612      0.02885860053516
  H   6.54756318020003     -2.56215089421824     -2.11268269841175
  H   1.77081338264910     -0.40734995940426      0.71135163526416
  H   2.05011377422818      1.75413838511219      1.22483031999169
  H   3.43211760605306      3.42429998593409      0.49071929684696
  H   3.66154426664518      2.16540631279905     -2.06676108942864
