22
Coordinates from ORCA-job 11976optt
  Br  0.02228297118522      0.82055605079731      1.00248763263642
  C   1.26961399145399      0.92598322623788     -0.42790775982914
  C   2.57060672302300      1.41277687879935     -0.17972128947749
  N   3.54924686568093      1.20957901365777     -1.04923255016641
  C   3.18410054815999      0.65169116344715     -2.23777728368713
  C   1.88905920762206      0.67866547944367     -2.70643189350339
  C   0.82989543688171      1.03872150319266     -1.81530701485380
  C   0.21046332519428      2.41236469101591     -1.88975316143197
  N   -0.84555069760656      2.81695579670174     -1.25445749050267
  C   -0.66199256668373      4.05027124807370     -0.67795769987999
  C   0.55411383721919      4.62900893083030     -0.86802033563883
  N   1.16752817932234      5.57944568120758     -0.01479162285637
  C   1.69445987116053      4.96798771658103      1.25287707212035
  C   2.35606635953758      3.66184285032656      1.09279841000158
  C   2.64661439443623      2.54813577597924      0.72114965564155
  S   1.46236541590536      3.69204174146528     -2.00581130983969
  H   4.00071192967322      0.34523612732380     -2.88325525916307
  H   1.70618208175174      0.56593591679764     -3.77179289568924
  H   -1.41452173498349      4.44102221466279     -0.00611973935681
  H   1.94143396751766      6.02288092107307     -0.49378511779297
  H   0.84238860286189      4.83650317575847      1.92212151151898
  H   2.35293129068684      5.71239389662702      1.70268814175012
