31
Coordinates from ORCA-job 11982optt
  Br  2.61392779877936     -1.85301584478104     -1.42445284014255
  C   3.81197000035274     -0.45057467337612     -0.83559022391168
  C   3.58016806530130      0.86285660419702     -1.16909757736301
  N   4.46768547287110      1.85551052293490     -0.93683401321658
  C   5.66011091176459      1.45287506399689     -0.40557368151055
  C   5.88325612413635      0.20923380558414      0.11674236890558
  C   4.88266350152783     -0.81028355548461      0.03886143287908
  C   4.54704618469734     -1.64129193851232      1.25502771645784
  C   3.26354925692173     -1.11750359405081      1.95135807538437
  C   3.19357286326176      0.40468820056998      2.15388533801403
  C   1.76091270028876      0.94464790494446      2.18385536093607
  C   1.02120129921670      0.96407763774691      0.82218089776060
  C   1.57217106872923      2.01006454126368     -0.20517565439289
  C   2.17968744435862      1.31629754196776     -1.42693008810579
  O   1.52182500848339      1.09790446598075     -2.41739626675984
  C   -0.40080318575902      1.21147622207624      1.07168956056690
  C   -1.55693811699599      1.43961119260924      1.30039258473628
  H   6.42716608272890      2.21886419936961     -0.34096243162491
  H   6.80703036964291      0.01663601843885      0.65734007448134
  H   5.39450585481513     -1.59918432102310      1.94641966161190
  H   4.37954076475701     -2.69637726181526      1.01162257686644
  H   3.13557913081866     -1.62137235206528      2.91593704045787
  H   2.41474796970218     -1.42940116580394      1.33917537055019
  H   3.75840722023497      0.92370197659006      1.37916313876239
  H   3.67701448394471      0.66885430645859      3.09964677190946
  H   1.75374777194775      1.96720197011788      2.57240808253306
  H   1.16229123625075      0.34319572819621      2.87522838100439
  H   1.09442491450287     -0.03114583088607      0.37158271877694
  H   2.33364117560455      2.62526100814018      0.27391089226613
  H   0.75869130538926      2.64437882001248     -0.55281060925331
  H   -2.58479467827555      1.63381280660268      1.48639534142023
