25
Coordinates from ORCA-job 11983optt
  Br  2.63442026170371     -0.12334124955692      2.23909177281023
  C   3.99271312592029      0.64226755176967      1.18002997917969
  C   4.46925865765493      1.90750908356362      1.68332472195474
  N   5.58130847973860      2.40610897131931      1.00023908372213
  C   6.25399950088958      1.73159690360708      0.02417155596645
  C   5.80992180981884      0.53842646159870     -0.40578014557263
  C   4.59293939201516     -0.03902558228955      0.12057448305963
  C   4.15932240760778     -1.24939447720412     -0.49743353699372
  C   2.88732498851462     -1.76717757460165     -0.70959499319838
  C   1.61793000753436     -1.17459286113016     -0.71723895224860
  C   1.23131315596097      0.16334683211365     -0.84050511737769
  C   2.06009745899629      1.20503007086216     -1.37589542205421
  O   1.68547608576611      2.36174135999153     -1.57993042557788
  C   -0.14731118129070      0.57020723722398     -0.55794790903122
  C   -0.96733055872326     -0.13652695539263      0.18040718766478
  O   -1.69409645707855     -0.77335624738839      0.83016820431988
  O   4.02558059328800      2.55365759947848      2.62306337188606
  H   5.90118328531895      3.30004933888744      1.33538218917782
  H   7.13400570742941      2.21583680610084     -0.37594997929730
  H   6.33002249168370      0.02235807006903     -1.20015822809933
  H   4.97561116338336     -1.85205902639646     -0.88790954051418
  H   2.87658517671557     -2.82438676643909     -0.96875907709062
  H   0.79277747788110     -1.88355264935100     -0.66391068751712
  H   3.06931109027846      0.89382013403857     -1.68409037377746
  H   -0.48536412100732      1.54045696912590     -0.90134816139106
