24
Coordinates from ORCA-job 11995optt
  Br  1.91344833039721      0.72865495532400     -3.27224182575947
  C   2.81918803653534      0.43903831742496     -1.61801270318190
  C   3.59780780504619      1.50055598833930     -1.01798198499877
  N   4.44539138609981      1.26038000232584     -0.07230138935164
  C   4.35908725797380     -0.00374840525877      0.48406671501550
  C   3.10377671714628     -0.66065348733611      0.44674323044496
  C   2.22757920368842     -0.33462702751258     -0.57054360013804
  C   0.72772649101690     -0.46529642212474     -0.46172032071357
  C   -0.01299228690303      0.89556084268351     -0.47469320820482
  N   -0.01509708056640      1.67190780326362      0.77793087457874
  C   0.13341081139537      3.03642578767663      0.87687121771262
  O   -0.50626303378617      3.72888899643581      1.62153304272277
  O   1.10500911071162      3.59786923909825      0.08441325909904
  C   2.22733091859905      2.81910873098948     -0.06456177740530
  N   2.92815106748416      2.78954953493467     -1.10786369590085
  C   5.36135240241393     -0.40828986276571      1.40202525309080
  N   6.15534222313095     -0.78305817708536      2.15350276309592
  H   2.80489946779668     -1.29856161379433      1.27147838139453
  H   0.46401885624624     -1.02292977016929      0.44067080552572
  H   0.32382592009510     -1.01797235814377     -1.31625609962142
  H   -1.05757081640945      0.71231784172733     -0.74373484826282
  H   0.39986026779429      1.52741020926903     -1.25631379475861
  H   -0.69341144559430      1.36405884859235      1.45866042383022
  H   2.38412838968798      2.15441002610588      0.78432928178638
