26
Coordinates from ORCA-job 11990optt
  Br  2.54461131830697      2.24270567809939     -0.76520122204814
  C   4.10869073926689      1.23894639344142     -0.39727979112954
  C   5.33846461704880      1.87297298922475     -0.27453069005540
  N   6.38852453132568      1.08669441510265      0.09726373756683
  C   6.46277293450510     -0.30997395803148     -0.07293304817202
  C   5.16649425016726     -0.93074634908669     -0.11992655433338
  C   4.04825661916149     -0.16237163328476     -0.27209329675739
  C   7.67143195686052     -0.93443556035420     -0.28825206224318
  C   8.76853205866525      0.00952172696494     -0.47022797069346
  N   9.49002907455833      0.29389078847251     -1.49802742789868
  C   9.41941438399377      1.75448419052837     -1.51650058694653
  C   8.14049110196842      2.25208983655753     -1.77252500245634
  C   8.00372844582999      3.42943773306904     -1.00195086291137
  C   6.80088394040104      3.92022043639777     -0.47229139099772
  N   5.57598157654174      3.18960586866521     -0.51153014978255
  N   9.24247165345339      3.78253713815293     -0.46944112782407
  C   10.06782359376814      2.77289519112689     -0.76579894385507
  H   7.26000524789190      1.59514478974191      0.08417288567148
  H   5.10369645402020     -2.00917028725233     -0.11828416414742
  H   3.07793603248159     -0.63860902093780     -0.34537569873832
  H   7.67349856540243     -1.96842652104254     -0.60146617254061
  H   8.74869454814946      0.76689050657158      0.32601581599108
  H   7.35053216214340      1.68353236093163     -2.23930867656752
  H   6.79358322210699      4.79066518532069      0.16982197622943
  H   4.73172249082554      3.72358388136360     -0.65025156803871
  H   11.08772848115562      2.76191422025697     -0.40307800732141
