23
Coordinates from ORCA-job 11999optt
  Br  2.40682742771091      1.75058600780774     -2.02829132010863
  C   3.95573791562906      1.10789146342546     -1.13608991557610
  C   5.07589410376306      1.93759295160203     -0.99111464489419
  N   6.05582646078774      1.39971818071723     -0.14985444393084
  C   6.32659194630333      0.06459785174860      0.00139724869415
  C   5.18716230721042     -0.76831260137779     -0.21443616033001
  C   4.01974985867292     -0.21911118216716     -0.72280026043625
  C   7.57184577213515     -0.39886726945266      0.37831180189483
  C   8.91027651430242      0.16485059613801      0.46384478525196
  N   9.87892806216231     -0.45091487998075      1.04501162623485
  S   9.68247238985157      1.57971898708448     -0.43025515374536
  C   8.58725540626023      2.93504839478615     -0.66436386781130
  C   7.61098337307705      2.90041341792701     -1.58976856027888
  N   6.53843924892433      3.75177035899068     -1.68973473371154
  C   5.33943559683048      3.19462908885269     -1.58818730847679
  H   6.80327798439664      2.02168050160861      0.09847898939921
  H   5.26473037687397     -1.82977394107126     -0.02827709620934
  H   3.15631132027841     -0.85382424683027     -0.87980107878316
  H   7.57152399397348     -1.44255052733494      0.67732356958059
  H   9.53393314693764     -1.32396662731145      1.44398194684664
  H   8.61777822768292      3.73985589276004      0.06223053186881
  H   7.60214813480407      2.03664785303675     -2.26441539446154
  H   4.48487043143178      3.77031972904078     -1.92919056101709
