28
Coordinates from ORCA-job 11993opt
  Br  6.08723797591954     -3.18419461184175     -4.42088394386559
  C   3.77195452145635      0.88555217754257     -1.33220630188353
  C   3.67900637604830     -0.19353067552476     -2.28707622985996
  N   4.86345072955470     -0.79648410162422     -2.55879629940103
  C   6.13296189969592     -0.17981030763202     -2.24878579711011
  C   6.14881008085909      0.32551593336001     -0.80837053792480
  C   4.90029483314462      1.11670999094437     -0.57964481081344
  C   4.57852578761673      2.11396645005933      0.37747642068685
  C   3.27985879020228      2.47362691241035      0.17080174132327
  N   2.76775728736328      1.73072160990687     -0.87667697869052
  C   1.50654440427700      2.02570431782233     -1.44831880629286
  N   0.92160830559155      3.15505616919582     -1.32087742098743
  N   0.85207321966353      1.04246726371418     -2.12511274704397
  C   1.20741769502761     -0.23177062595177     -2.61638170472413
  C   2.48797349554562     -0.73114021938115     -2.75946041083178
  C   0.10017302235726     -0.95913256647165     -3.10050967405530
  C   -0.86567157759681     -1.54491416390725     -3.52655478492393
  H   4.91928192842998     -1.58528874670821     -3.21501028661726
  H   6.31881440476309      0.66852005615904     -2.92193909510459
  H   6.89653115687202     -0.93309064725541     -2.43769043760660
  H   7.03778907433289      0.93581940012141     -0.63492775383862
  H   6.19304531194899     -0.52405368520539     -0.11951726418804
  H   5.22499601914387      2.50935948210954      1.14452006644862
  H   2.65840518402951      3.17352667935784      0.70057139860317
  H   1.50893867360598      3.82836573954777     -0.84766258111879
  H   -0.04128559382834      1.37975913316516     -2.45164439076342
  H   2.56621226346618     -1.67101919999012     -3.29319462322908
  H   -1.70270526949114     -2.08124176392299     -3.90112674618690
