25
Coordinates from ORCA-job 12006optt
  Br  2.84087599477514     -2.54322952408543     -0.48490952999900
  C   4.34952052920358     -1.48778021455613     -0.00407894679102
  C   5.64829652236086     -2.10263554110834      0.07573658122209
  N   6.61264534444964     -1.28296408297000      0.56133950296463
  C   6.52274201995170      0.04836908866473      0.58660472590023
  C   5.31482492134722      0.69647239776143      0.42851895688076
  C   4.19738975551808     -0.14089770560029      0.18690044696711
  C   7.94738885788485      0.50678788601181      0.34388962555815
  N   8.92088140477190      0.20000884989859      1.11027497879961
  C   10.05103172488844     -0.42112600623818      0.55858094793598
  C   9.86515436683386     -1.54598121670447     -0.21093649608774
  N   10.65486626489477     -2.70881734353351     -0.21853491114891
  C   9.71335655472441     -3.79443903622796     -0.21622097720667
  C   8.45934230522140     -3.28783475340691     -0.49387755934144
  N   8.69772219310259     -1.93393164108951     -0.82676671443975
  C   7.16678618952800     -3.87253918716169     -0.39537717685069
  N   5.91538566697997     -3.34634072409557     -0.30530497447462
  H   5.22007847294435      1.77271726511504      0.43628487962489
  H   3.20981013036936      0.29155991924050      0.08409858322907
  H   8.12774380056102      0.65499181360246     -0.73253936078536
  H   10.97464883076258     -0.33976179981288      1.11641858188035
  H   11.36367359343999     -2.73896308306914      0.49758406767166
  H   10.03539193300690     -4.80260657640178     -0.02704573624994
  H   7.89458423737241     -1.34621268639659     -0.66845702091312
  H   7.18485838510684     -4.95984609783613     -0.38618247434629
