26
Coordinates from ORCA-job 12001optt
  Br  1.43470799861394      0.98646355679521     -1.91013859378965
  C   3.00633355973503      0.26511342531540     -1.13300765073426
  C   3.25320686542320     -1.07657356359237     -1.18843342195114
  N   4.48245891812448     -1.51091504512595     -0.75180988071379
  C   5.55178570107971     -0.54576466625602     -0.93184924786225
  C   5.24217482895115      0.73814382097182     -0.14735287969362
  C   3.73814977039346      0.97097690070967     -0.10171596838246
  C   3.13481157009124      1.56244583606361      0.99993500379184
  C   3.95155884048615      2.50839016720412      1.76758483771916
  O   3.60280015460566      3.12169442574449      2.75670421722091
  C   1.78277096352444      1.36588929540460      1.46997701144757
  C   1.02380879122221      0.23647605426835      1.28034676564362
  N   1.50264210321990     -0.85470557826460      0.66766055880301
  C   0.70318195037276     -1.68674691938415      0.01914374125377
  C   1.13951994413270     -2.36114390818871     -1.15174625645175
  O   0.53388688272416     -3.14858406905297     -1.84371166070570
  O   2.47816214819891     -2.06715637737965     -1.63664947097167
  H   4.66783711539195     -2.47227066119019     -0.99133331675091
  H   5.64813331186157     -0.29569183274909     -1.99519269888295
  H   6.48865962455607     -0.98346174763057     -0.58912584392322
  H   5.77428046369034      1.56282500309886     -0.63340752623736
  H   5.62636564800923      0.64127355662979      0.86786273780376
  H   4.96524296387507      2.69293495819413      1.36262034382989
  H   1.35392453606125      2.17822271590439      2.04407379053931
  H   -0.03935939850853      0.27438757426417      1.55096432139992
  H   -0.37704525583611     -1.73422292175432      0.18360108759798
