25
Coordinates from ORCA-job 12000optt
  Br  3.39021419849518      3.26703020179005      2.48479953326109
  C   4.50495158984796      2.17390435510709      1.34549197429018
  C   4.03807586802230      1.82789522841555      0.12529286333024
  N   4.69251007104029      0.74427228604847     -0.48106774209015
  C   5.35643579771092     -0.17675876131714      0.34834786546344
  C   5.90200748253089      0.24606874252103      1.50244852025181
  C   5.76395051636900      1.65524758492508      1.84007605193442
  C   6.78121290694440      2.54974889911717      2.24049955585535
  C   6.86618240583758      3.86622569985711      1.71502222061105
  O   7.61097850362428      4.78622375371640      2.11179312322792
  C   5.96313865235768      4.08496865339425      0.50919133793109
  C   5.01254904190693      5.00917016924978      0.46853731263521
  N   3.91576374888881      4.99085278905809     -0.42599784457593
  C   3.15576470733088      3.97369232895811     -0.90217241592655
  C   3.13126021689590      2.61322323836563     -0.70383922223977
  C   2.22926661588849      1.89246208348122     -1.54791860831556
  N   1.53536097869488      1.26625785908386     -2.22345195393324
  H   4.29121304687080      0.40827136804069     -1.34085391796247
  H   5.41384139539691     -1.19341060125220     -0.01720232346016
  H   6.47087021792488     -0.44484605403173      2.11677383732389
  H   7.58420479687990      2.23024284836785      2.89871479604190
  H   6.01930572085568      3.34654591593829     -0.28346953082588
  H   4.94701772360449      5.78317409242597      1.22447659979291
  H   3.55210412944313      5.89827655419806     -0.66681257857463
  H   2.39681966663751      4.34226076454116     -1.58367945404618
