25
Coordinates from ORCA-job 12007optt
  Br  3.48059088007496      1.01808608143765     -3.52308697942644
  C   4.43636604287478      1.25852976503207     -1.90508098089232
  C   4.19585848595081      2.34366381398940     -1.13209921233794
  N   5.03836596153375      2.65116383708659     -0.05952807636117
  C   5.95670683614236      1.66434306273676      0.35268336791738
  C   5.86233553895222      0.41400313645238     -0.09242893615964
  C   4.82388945418813      0.08273527334385     -1.08268696148114
  C   3.85748568174555     -0.83524601997392     -0.92027046266979
  N   3.53765542896375     -1.49696180927356      0.25846848494147
  C   2.33033236462549     -1.25216968508279      0.66558186927544
  C   1.33683717136300     -0.32790901557218      0.11367655570354
  C   1.53248178919255      0.90767538290923     -0.58883784775469
  C   2.26741164370900      2.02480876021740     -0.08395056447034
  N   2.49633386237532      2.32227823566133      1.15308513198640
  N   2.90729460777700      2.93904912798789     -1.06544395856973
  C   0.01294266199100     -0.84184553552647      0.16196525152446
  N   -1.06422154505547     -1.26284097156947      0.20837177165412
  H   4.48945046299158      2.99897891345821      0.72693607722860
  H   6.69305606471799      1.98611038389554      1.07707791055372
  H   6.53489334461001     -0.35445264588829      0.26552145585650
  H   3.09931827912935     -0.90283714323071     -1.69707909471887
  H   1.97960569743998     -1.86670540799175      1.49529568772377
  H   0.93968598883805      1.10474464731056     -1.47579907160437
  H   2.00333468870874      1.66121245220404      1.75196888690742
  H   2.96298860715997      3.85558536038624     -0.62634030482638
