26
Coordinates from ORCA-job 12002optt
  Br  3.12761296976788      2.73278422585954     -0.90178915101132
  C   4.48838429188827      1.38870658124492     -0.88655902575213
  C   5.75763106376930      1.68377090741943     -1.29095849988008
  N   6.65391759711380      0.62746791788630     -1.33465586460946
  C   6.55573211832923     -0.40493321964210     -0.36284839236872
  C   5.24243757487237     -0.71247058462058     -0.00146595867324
  C   4.17916840721918      0.11569691852405     -0.34926536517753
  C   7.66307592044965     -1.13404485622646      0.10661687185128
  C   9.06877612956239     -0.96697322884064      0.10677880424125
  O   9.83955564226192     -1.91420465809502      0.38487380539735
  C   9.76525137591783      0.36804519575011     -0.16039283395960
  N   11.03037102741165      0.40356792830954     -0.30544576971187
  C   8.97118533484610      1.60822240003301     -0.25240926490391
  C   9.18214181892901      2.47197399343381     -1.24764936007652
  N   8.47774452005244      3.62547638654263     -1.55404484700551
  C   7.22958103432490      3.77267325673741     -1.73645620897900
  N   6.11561330924598      2.95230763685776     -1.76303811198230
  H   7.57362711593123      0.82585761650268     -1.68768402375530
  H   5.07536780189197     -1.58723647890521      0.61402558360575
  H   3.15904072915544     -0.12870301900063     -0.09422292249027
  H   7.38010977194043     -2.08214796002422      0.55348618979176
  H   11.34909901559344     -0.56856935667775     -0.22204921548956
  H   8.13377690083461      1.73739621276589      0.42610844150024
  H   10.04354018904908      2.30128334646239     -1.88827436046552
  H   6.91188548857451      4.78217447372771     -1.99805146896318
  H   5.28737285106725      3.49087836397542     -1.96762905113261
