22
Coordinates from ORCA-job 12005optt
  Br  3.62304689532646     -2.82891334137152      0.07687257061600
  C   4.93775588313461     -1.47853731914641     -0.11353849849238
  C   6.26556721739408     -1.77465768569211     -0.44529450413456
  N   7.15401101281336     -0.82567596694683     -0.61072604958346
  C   6.92059952198746      0.43196747891892     -0.17257746206469
  C   5.57806102195180      0.82426868764657      0.10499027786239
  C   4.59766203039256     -0.13456456239048      0.11283269421709
  C   8.04772783657216      1.23793041857813      0.09823208921668
  N   9.32899915679746      0.87875291914311      0.11151736621200
  C   9.79935853558602     -0.36386838924942      0.16947066237239
  N   10.97114224969090     -0.70344382331699     -0.25725391198981
  N   11.24238766015272     -2.07054171285037     -0.08074876255920
  N   10.24275059422464     -2.95795928964799     -0.34117189128793
  C   9.10004755463150     -2.52582290992490      0.04619091122970
  O   9.05498363100559     -1.39314611074493      0.81015700946087
  C   7.94395235638596     -3.34886021435482     -0.37453388711437
  N   6.70962430140998     -3.10176065169004     -0.58730073719283
  H   5.34884208348285      1.85293908521571      0.35598616462823
  H   3.57122544627417      0.12185035195731      0.34270463349995
  H   7.85891734977274      2.29024366689093      0.30106488781752
  H   12.04765438382828     -2.30434344183759     -0.63963286248378
  H   8.27268327718461     -4.36885718918629     -0.56824070022982
