23
Coordinates from ORCA-job 12010optt
  Br  0.76901817137028      1.61033896436369     -2.78535075786723
  C   1.36644270639680      1.04522405613083     -1.08325640793348
  C   2.05485056548145      1.88466789424604     -0.28968444394200
  N   2.74121335547763      1.36407904843835      0.78197678681757
  C   2.70038283432183     -0.01435576801187      1.02246846248320
  C   1.76487898051120     -0.78939763007341      0.43509219202200
  C   0.80798470219993     -0.15473242927350     -0.45046483078716
  C   -0.60481150863794      0.01160952120937     -0.12934575713041
  N   -1.04644820014188      1.23942516880355     -0.24542095593006
  C   -2.04306172199094      2.03838604048597      0.01988351942174
  C   -1.82456598155834      3.47084515664415     -0.16184932869733
  O   -2.69935877577237      4.32022975256023     -0.00787313800343
  C   -0.41551979826750      3.84493923324510     -0.59994440595570
  C   0.60805569110346      3.42246367290023      0.11918443960778
  O   1.95106005602779      3.26164203348187     -0.31735744241013
  C   -1.34112025359415     -1.06822196663740      0.46676978609869
  N   -1.91858723503587     -1.92941409048391      0.97281816324290
  H   3.02072706860186      2.00061585578539      1.51043474224871
  H   3.43571215776046     -0.39003621345547      1.72046304075095
  H   1.69288739967545     -1.83458255753546      0.71655189094306
  H   -3.02373824080921      1.73084141203936      0.39191986008276
  H   -0.28188053781147      4.28862764464303     -1.57845216582772
  H   0.44887856469151      2.95980520049382      1.08843675076530
