24
Coordinates from ORCA-job 12016optt
  Br  1.12267841595035      2.62246448431197     -1.04697070843669
  C   2.49538009259691      1.64908407246363     -0.17628872781779
  C   3.59558156814874      1.33910149814493     -0.90643649747131
  N   4.61539481106714      0.61598524446254     -0.33717130729644
  C   4.63867383029501      0.38152016855745      1.01641974612850
  C   3.72142076685535      0.94695715601802      1.81060587850117
  C   2.66472225029018      1.79579180547756      1.25863470238972
  C   2.26020176315373      2.94060813075712      1.89356741890307
  N   3.37893265937685      3.60405248579704      2.43289094608267
  C   3.60716012652790      4.73053300070141      1.89058017145304
  S   5.24187786624426      5.37218869737280      1.64127650881832
  C   5.28289552230810      5.03243810567918     -0.18957615388615
  N   5.72844708436850      5.93994844820473     -0.98605635200569
  C   4.81793285912410      3.72754073201008     -0.56115315596847
  N   4.62192759753961      3.33317219214691     -1.82287959722514
  C   4.05393817403807      2.14556480834910     -2.13434862100246
  O   3.93739031525319      1.67798280515136     -3.26128981282050
  H   5.44304606350979      0.47429995393037     -0.89180935519579
  H   5.44577146872439     -0.23644890581889      1.38380682200547
  H   3.78930147020948      0.83726039380779      2.88175148954357
  H   1.48054280839314      3.54774248280161      1.44347062972981
  H   2.86092740593738      5.22036789783550      1.25634465503897
  H   5.92771052899648      6.79715425974588     -0.47619329034529
  H   4.65814455109125      3.06569008209183      0.28382461087739
