23
Coordinates from ORCA-job 12013optt
  Br  4.58677988525599     -1.96218297871007      2.41804411808049
  C   5.24983563348586     -1.17105312538092      0.84112095978558
  C   6.45987358881457     -0.27158067313947      0.92336044381583
  N   6.36150050380223      0.67102267468395     -0.16380817753057
  C   6.34924411809368     -0.05241486810357     -1.38938801105898
  C   5.31395209591583     -0.96815618338083     -1.56005897661938
  C   4.69143219238757     -1.46247241887991     -0.39537897258686
  C   3.57763282871890     -2.34817894650271     -0.53387279737703
  N   2.67922558303165     -3.05053978709296     -0.68541168497179
  C   7.47491987148708     -0.08799783286601     -2.21691649358642
  N   8.71514516681517      0.25264136868429     -1.93062978338576
  C   9.26480300332919      0.30602344455618     -0.68145977898297
  N   9.02903243548547     -0.17915589851045      0.49205805471587
  C   7.92885960360718     -0.90683423931649      1.05222453307894
  C   7.79137953358556     -0.46563855175413      2.52345574885545
  O   8.37698717790507     -0.67009483761804      3.54859164557191
  N   6.68725763788735      0.30951403593844      2.23865682473114
  H   7.15770289494474      1.29679363545061     -0.12646743599270
  H   5.14337029233020     -1.44590035827044     -2.51537080397634
  H   7.30753033913432     -0.47010021285177     -3.22475100173492
  H   10.21783676455332      0.83938871418122     -0.71556636733167
  H   7.99104256485330     -1.98661757227379      0.89769701267212
  H   5.97265628457570      0.60253461115689      2.89087094382806
