26
Coordinates from ORCA-job 12019optt
  Br  1.03932735261764      1.03522923045812     -2.55253691995891
  C   2.21973078804656      0.54545892218587     -0.47427573734708
  C   3.20992136266867      1.41847470589398     -0.03857463860135
  N   4.41637484777389      1.01853656559324      0.35465499941988
  C   4.64514130829850     -0.29639356346976      0.37584535962399
  C   3.64712690362344     -1.24176211159638      0.17158170373304
  C   2.38461913835336     -0.79673178635452     -0.22210274852178
  C   1.21575355108719     -1.71304042832985     -0.18745783121766
  N   1.16951052146285     -2.87668880742972     -0.69577608562959
  N   0.12409593003873     -1.35800950141006      0.62522369960822
  C   -0.33045337774400     -0.26407855620462      1.35913811214485
  O   -1.06469270807618     -0.50493475872122      2.29927049902064
  C   -0.08184618363623      1.17655719065503      0.95325042218173
  C   1.08102681242916      1.85617999707103      1.69881052390469
  O   1.62444278837968      2.94791445436154      0.95351474887530
  C   2.79209559670525      2.82505933253513      0.23848167474122
  N   3.42921136865439      3.84303470522054     -0.13660609664403
  H   5.64386718808015     -0.60513600884748      0.66360202371443
  H   3.83343338407420     -2.28954924344188      0.38047699290247
  H   2.01660473656990     -3.04407901224507     -1.23176312134478
  H   -0.40717521150798     -2.18371861654126      0.87426375466917
  H   -1.00946034573995      1.68713054660225      1.21327639107020
  H   0.07219024100990      1.25740020051964     -0.11852312889798
  H   1.86335914308080      1.14320030367224      1.95671171513604
  H   0.71642632081123      2.29650355874943      2.62666119124776
  H   2.94936854293881      4.68244268107376      0.18985249616951
