24
Coordinates from ORCA-job 12023optt
  Br  3.68672764299200      1.63964158606022     -2.75761449786599
  C   4.57302987134790      0.98178093924178     -1.21478796536885
  C   5.68126178712706      1.58688016177605     -0.74257700364615
  N   6.22655086339916      0.96259503296324      0.41360063130003
  C   6.40175168657852     -0.43107347409396      0.27085126721525
  C   5.13251415704308     -1.07665869429662     -0.05289868626237
  C   4.21755704509516     -0.34308668151933     -0.72562291965874
  C   7.65522540694085     -0.92085959649407      0.27066392927367
  O   8.68524973260406     -0.01337449474240      0.36205378831268
  C   9.71261117877361     -0.09100866748732     -0.65255674205191
  O   10.17739746970222     -1.18559165866995     -0.87349977616783
  N   10.09074301569637      1.09173738195267     -1.15487501018852
  C   9.20840853515544      2.09357959417232     -1.37232062892199
  C   7.83190075652336      1.83000147845058     -1.52754999189542
  C   6.65286541285876      2.53001080129653     -1.34143710826166
  C   9.67904062259247      3.43935509402419     -1.42391722672707
  C   10.01283030398300      4.59569517444398     -1.47807118778292
  H   7.10097835466888      1.40158182366363      0.66391131951313
  H   4.95753032211684     -2.12019072061791      0.17504396196123
  H   3.27323766861469     -0.77680484480103     -1.02790033331976
  H   7.91436404528967     -1.96907745430492      0.19909513756931
  H   7.66734749547698      0.76062868883795     -1.60700011374285
  H   6.54948444820812      3.60603375328387     -1.32274514234370
  H   10.32039217721166      5.61120477686047     -1.52584570093955
