25
Coordinates from ORCA-job 12025optt
  Br  3.43195669922225      0.34738325450063     -2.36283186345978
  C   3.89103124632779      0.08560780639623     -0.54896543379385
  C   3.33557226694114      0.85530492369846      0.44031924724882
  N   3.22709870453689      0.23982952627644      1.68849212791369
  C   3.54701568901181     -1.07448229578909      1.87928561871915
  C   4.30249203490613     -1.74269621957542      0.98562628233891
  C   4.80432683754000     -0.99349534144591     -0.16376600458649
  C   6.05147895715977     -1.14327467726221     -0.66898949040892
  S   6.80642020288095      0.07175659511722     -1.68944205974279
  C   6.06728269159101      1.50144532786868     -0.89450549220184
  N   5.58664493402463      2.42935160808963     -1.58489992062928
  C   4.83712473046869      3.49917082105721     -1.03566678031741
  N   5.19386437204450      4.72361048661099     -1.33453998030928
  C   3.64249301256419      3.30616639270843     -0.27512592554670
  C   2.96673672474927      2.24844357869171      0.37862900107189
  C   1.90128621778963      2.62452399494123      1.24128771950444
  C   1.00224795065939      2.90672966096350      2.00066398616270
  H   2.76973388068811      0.77222969045994      2.41153330384454
  H   3.19488381620639     -1.51958505238612      2.80043318580665
  H   4.60245878758121     -2.76527882466331      1.17133460172659
  H   6.68427126510355     -1.95844255022185     -0.34194209556663
  H   6.04516719255762      1.43750731790334      0.19714905156745
  H   6.01752706911458      4.67329122126478     -1.93195712364955
  H   3.16773328452601      4.26823661636309     -0.11980508694165
  H   0.18715143180441      3.17166613843241      2.62768313124934
