25
Coordinates from ORCA-job 12041optt
  Br  0.51242353488638      0.27698738241711      0.11884190797200
  C   2.35814099670787      0.11781335104606      0.52563434398624
  C   3.27567961748253      1.10003185400874      0.13913740309009
  N   4.57394526269605      0.85462675722471      0.58909196065426
  C   5.12592345575965     -0.39800004357208      0.78178369269348
  C   4.17121005048049     -1.37341937502004      1.15558903188655
  C   2.81757714607115     -1.07478798099125      1.07371190432722
  N   6.39835170699529     -0.68982580036428      0.62790403198050
  C   7.38877914529932      0.08459364119887      0.08707460978847
  N   8.52524364120778     -0.48759536904406     -0.13455922189976
  C   7.33360409565461      1.57301288064739     -0.21270752204050
  C   6.54922755130497      2.32197750764814     -0.99877867759768
  N   5.41785341078007      1.94121130729306     -1.72220461878517
  C   4.23380739178339      2.70249939752490     -1.49823753843409
  C   3.16080213759026      2.21876412205113     -0.74225785468004
  C   1.95523639729812      2.98025431141796     -0.83758759491113
  N   1.04171117546680      3.67449508682648     -0.93659290053667
  H   5.22091793706764      1.62369928061297      0.54230796478581
  H   4.52399081686062     -2.35803097169866      1.42089615077985
  H   2.08790659138938     -1.82600833981794      1.34801131655373
  H   9.16922258936864      0.19064043827801     -0.53585066722564
  H   8.18344818016085      2.09952629322886      0.20873611027052
  H   6.75804189367954      3.38451856165436     -1.07522131649153
  H   5.25442643685083      0.94209020741116     -1.69158385648396
  H   4.16952883715750      3.65792550001833     -1.99913865968253
