25
Coordinates from ORCA-job 12048optt
  Br  1.11689950097288      0.06007204893906     -0.80128167731712
  C   2.95431967293916     -0.02530802098560     -0.28243388478326
  C   3.63076672080537      1.16589154025416     -0.00797772532281
  N   5.06929646193939      1.11975543936596      0.07939110745141
  C   5.60961520905995     -0.15696212377421      0.34458061066319
  C   4.90542528217196     -1.28197806170237      0.20133208178656
  C   3.52174932132777     -1.32140700763497     -0.26156912425318
  N   2.88974483610557     -2.42562364481932     -0.60330228552367
  C   5.99555267308327      2.13761452849352      0.05099383714083
  O   7.17504095932483      1.93801319198075      0.36606930340425
  C   5.71717356884745      3.57203653528246     -0.39950359088712
  N   4.45073457494933      3.96069551422969     -1.00763765438909
  C   3.37174195199290      3.64778711908267     -0.17118116748207
  C   2.96590037941564      2.41693477701536      0.28817155839338
  C   1.81666265912662      2.72527187584190      1.06620965344961
  N   1.56308993871059      4.02241206041004      1.08803050040294
  N   2.52440218668348      4.57311134699548      0.33507129650921
  H   6.64380384519208     -0.13685258840649      0.64417724839894
  H   5.39987063878975     -2.22348263939121      0.41226941063257
  H   3.52627750757391     -3.21152509852311     -0.48592196499819
  H   6.52718804527951      3.79355980324888     -1.09833127426876
  H   5.88281223714212      4.20788127211270      0.47260405484403
  H   4.33349518051212      3.48058098615230     -1.89445388293836
  H   1.17375996408611      2.04130422440658      1.59599718323898
  H   2.56067668396816      5.56621692142573      0.18969638584774
