24
Coordinates from ORCA-job 12047optt
  Br  1.14789861237004     -0.27345071204609      0.81459293378857
  C   2.92904053162137     -0.11207441534143      0.14980585752746
  C   3.54410080246882      1.14204668950032      0.00938818822300
  N   4.95634129189838      1.14507101900431     -0.09821903174746
  C   5.63277712543149     -0.03985555589911     -0.26450354248418
  C   5.02393791653432     -1.23037415163713     -0.27024392365291
  C   3.59788994180288     -1.37241423056641      0.00072751608531
  N   3.00263000896578     -2.52045658060269      0.12698764840997
  C   5.76297203161573      2.32120691705401     -0.01820436543948
  O   6.98503740793419      2.21182507176027     -0.08378707693128
  C   5.05604514472233      3.53986497981396      0.13307350287862
  C   3.69042721463509      3.59619303351885      0.06526881166658
  N   3.09246625893266      4.85768827113670      0.13945210636338
  C   1.80957162657612      4.92284222798001     -0.02580624855076
  N   1.02697262266183      3.87642233293472     -0.32308876748122
  C   1.54260558013889      2.59290687446631     -0.42216675504706
  C   2.90068138894853      2.40662108043552     -0.08320547604627
  H   6.69704439051826      0.08914644791221     -0.38380954399416
  H   5.61323529341588     -2.12685251101573     -0.41634697167483
  H   3.68695546671918     -3.26113627300064     -0.01212191815777
  H   5.63480204045647      4.44503370715725      0.23202566945994
  H   1.30474406410876      5.87949413906009      0.06790716346304
  H   0.03952389129347      4.02127300823777     -0.44305591161089
  H   0.85629934622946      1.82097863013692     -0.70666986504757
