24
Coordinates from ORCA-job 12054optt
  Br  1.15391362169178      0.20117193946776      0.48617557413842
  C   3.02011048833518      0.22847468923298      0.22221480206747
  C   3.69196601255508      1.45466021848478      0.18185057624292
  N   5.07107657573044      1.42332746600565     -0.07710941543299
  C   5.75233514093931      0.26553812045993     -0.23042137729033
  C   5.13252234931851     -0.93054645480423     -0.17484273692806
  C   3.68273316435308     -1.03666510084507      0.05869556150131
  O   3.13115734119918     -2.14057694495230      0.09467645677744
  C   5.69352540452943      2.73088091138106      0.04817920550667
  C   6.44119364097566      2.87044917715939      1.36442842664762
  O   6.82485628221771      4.22613458381730      1.56128993950852
  C   5.79314868584413      5.11154907714224      1.67913806141710
  O   5.94657992806695      6.13371195145575      2.30015163504661
  N   4.65241171822764      4.72264926848009      1.07162405900717
  C   4.51114293322524      3.69070116698956      0.05580144383117
  C   3.28423801163193      2.80914551288223      0.33530895451890
  O   2.18729386348558      3.32852476726087      0.61252035191148
  H   6.81712969116514      0.37130123748955     -0.40858810961712
  H   5.68104898761558     -1.84975800899775     -0.31705674788211
  H   6.37885187407355      2.90857651335263     -0.78316807375773
  H   7.35958879462027      2.28589762592092      1.37493554529919
  H   5.79374419551094      2.53919039285635      2.18178001249609
  H   3.82659435183066      5.27301352767513      1.25319707816492
  H   4.38883694285696      4.17564836208511     -0.91978122317467
