28
Coordinates from ORCA-job 12053optt
  Br  2.29537147922248     -0.14804853508567      2.03474345378679
  C   3.74892690643601      0.13468388041195      0.82702552110454
  C   3.98472701729255      1.45988304930659      0.36096774112136
  N   5.09752164264946      1.61960217388412     -0.52960674767107
  C   5.78445246075345      0.52795029917679     -0.98603831531766
  C   5.43732529187941     -0.73001478144469     -0.67255868927206
  C   4.34167600967832     -1.02659524202803      0.28998865076244
  O   4.04605488271180     -2.20950873970278      0.54731975312709
  C   5.79885323053127      2.84685403786153     -0.16788751628619
  C   4.63552955929697      3.74088710628950      0.23786274161112
  C   3.91927086341066      2.74761093392434      1.17189049879622
  C   4.75930145611174      2.67458613404953      2.48018532039567
  O   6.09397069039128      3.11258903235178      2.26609076388246
  C   6.68954207595676      2.62211712782048      1.08440155125866
  N   2.54015039236687      3.10905619181820      1.47045135294918
  C   2.13844612673430      4.27897081529126      1.98206097117018
  O   2.84992343017525      5.22437317759093      2.27283562485570
  H   6.62109421959120      0.75752245583165     -1.63995385564167
  H   5.95030349219310     -1.57713429545579     -1.10607953247401
  H   6.38627275290695      3.20797383962945     -1.01450714240613
  H   4.00116256354109      3.96865101774302     -0.61828082583677
  H   4.93131773503243      4.65084927834201      0.75138090946106
  H   4.74597375625000      1.64534724703572      2.85576233883082
  H   4.35054820685479      3.35315428477440      3.22789073938536
  H   6.90102572457846      1.54823763972224      1.17496969637571
  H   7.63357016067328      3.16086202448213      0.98982613749102
  H   1.84875862512030      2.39479395690657      1.29335673936207
  H   1.04392924765947      4.31474588947262      2.12290211917805
