21
Coordinates from ORCA-job 12064optt
  Br  0.98760016633158      0.04398179810139      0.07381903294591
  C   2.86409880843417     -0.08384970372828      0.05568860374670
  C   3.48464709670252     -1.30278922561042      0.05277202265364
  N   4.86834261311404     -1.35100030412779      0.04363443909453
  C   5.63460267186571     -0.23417438229350      0.03599655771589
  C   5.06414760880922      0.98873572223540      0.03631419816784
  C   3.61605262997328      1.16719233668466      0.04594898837892
  O   3.09263010936715      2.28025551000159      0.04603772965688
  C   5.38283580098333     -2.70578459056366      0.04313516591142
  O   6.58115633896289     -2.94979869766612      0.03661272561265
  C   4.19916551835990     -3.48328994893352      0.05148367529474
  C   3.05646280510858     -2.68804727567403      0.05708642076610
  N   1.81498249995928     -3.20858005296366      0.06263608669067
  C   1.75516269313535     -4.50993248958800      0.06337324073443
  C   2.90947354632382     -5.41519131344307      0.05963638585806
  N   2.88093394346944     -6.68580753968835      0.06177699710310
  O   4.15086723444638     -4.84043090875348      0.05310841340242
  H   6.69984236199941     -0.42364051125088      0.02976159741992
  H   5.66997029048108      1.88341554322674      0.03004816920992
  H   0.78005675047875     -4.98510388473759      0.06741111493689
  H   1.91296851169409     -6.99516008122740      0.06671843469939
