26
Coordinates from ORCA-job 12061optt
  Br  2.61227746158926     -1.70759406564549      0.99298690231875
  C   3.13481494007453     -0.13120567315276      0.02329153068682
  C   3.47506742723383      1.02980330788894      0.67543698380872
  N   3.87778090658746      2.14052260868835      0.04071663276136
  C   3.92827678713166      2.05612556966990     -1.31010007005600
  C   3.41712995493577      1.02274935077722     -2.04798824986589
  C   2.86941148964827     -0.11042610840211     -1.37496231972110
  O   1.50424781963445     -0.51763760371208     -1.72367869471468
  C   0.56873271960490      0.02859378777673     -0.93382094154480
  N   0.71908142014299      1.14946628086256     -0.37048985424838
  C   -0.12890261871763      1.57620918102756      0.71066863812239
  C   0.52478996356613      1.32259796622876      2.07487147924493
  C   1.85621980604356      2.07860699784814      2.31474754709422
  C   3.10504286126697      1.21700630825576      2.11803789155093
  O   3.67566213004366      0.71645589124335      3.05616053874867
  C   -1.54956011813771      1.04972835812423      0.63406254711481
  O   -2.24139120104565      0.73919417424688      1.56661326496535
  H   4.35844639890600      2.91720607935926     -1.81471533540633
  H   3.36912891641152      1.09550656278408     -3.12970233774727
  H   -0.28321154154625     -0.64943322904198     -0.79221928675614
  H   -0.25444040131541      2.66610835510073      0.60193215120133
  H   0.66917140389282      0.24590034978189      2.19248460222044
  H   -0.19590571707565      1.62480271683004      2.83624157662157
  H   1.89008911534300      2.42415941780883      3.34817281132625
  H   1.92772124654327      2.93815112213137      1.64553149999073
  H   -1.95568117076177      1.00940229351980     -0.39827950771669
