26
Coordinates from ORCA-job 12069optt
  Br  4.98508172403296     -0.54954301399056      3.19456057910733
  C   5.28435849127673     -0.77216925340054      1.34364671699202
  C   6.21290170798080     -0.02413934647606      0.71019729168370
  N   6.40501628608029     -0.20939120860397     -0.62287190361118
  C   5.97642067891140     -1.33136669023172     -1.30942915953744
  C   4.98271208370862     -2.07851828732364     -0.70166425644959
  C   4.52057542670860     -1.82480419450559      0.63371564784068
  O   3.62141550121166     -2.45655806298394      1.19490299163965
  N   6.56323608791465     -1.59444443488866     -2.49788934412743
  C   7.81793088245225     -1.13291425828246     -2.68690847241571
  C   8.80551318227198     -0.96124087642739     -1.64509140119252
  N   9.74391046342524     -0.07087364660348     -1.70381409083673
  N   8.64880929421954     -1.85352152799133     -0.55791508021378
  C   9.05852293399688     -1.72509347298512      0.75352322701782
  C   9.05331044717110     -0.67336361314871      1.59075103559328
  C   8.42764820400376      0.65806697366222      1.56611326721931
  C   7.15320602219021      0.95721167240793      1.30026937080270
  H   7.13490293057759      0.33689596554199     -1.05651591771006
  H   4.58629203223049     -2.93963602836185     -1.22002122796648
  H   8.14125534517167     -0.90135602689222     -3.69514608845656
  H   10.36636793279497     -0.16458373304489     -0.90220411065439
  H   8.19363860947735     -2.72125827035135     -0.79783402626786
  H   9.45883696074103     -2.64959070637520      1.16362845771142
  H   9.56418818940992     -0.86616739142525      2.52978907391725
  H   9.03425769497273      1.45662072961947      1.98598261808379
  H   6.78969088706744      1.96173870306231      1.48722480183080
