23
Coordinates from ORCA-job 12070optt
  Br  5.71533861465774      0.25870086951470     -3.55550180198830
  C   5.80543818321945      0.10180106531938     -1.67389402292662
  C   6.94442114922744      0.46408233301168     -0.93685668582777
  N   6.63642429920903      0.65689800712823      0.45900995615932
  C   6.23151651126579     -0.65496247338518      0.93993714515765
  C   5.18723086034816     -1.20790260258723      0.31500006971506
  C   4.73802684066375     -0.61615103272900     -0.99630505955753
  O   3.64691630306719     -0.90939040011586     -1.49322919705086
  N   7.17550550171234     -1.19003860553851      1.84695142386901
  C   8.03568335619963     -1.91089991124085      1.25058559972321
  N   9.32172204248856     -2.15942200547775      1.71899455855882
  C   10.39705235722160     -1.99099000879012      0.69255059937319
  C   9.85819094363205     -1.15681710699495     -0.44559998234473
  N   9.62181185923704     -1.66820065432576     -1.62273010373577
  O   8.61409214285280     -0.83100341233460     -2.13270545318978
  C   8.27448206127439      0.01045816514177     -1.11987955438357
  N   9.16464177153901     -0.04061814086172     -0.13827851912105
  H   5.83593705950300      1.27740607480901      0.52052999018604
  H   4.77300690349688     -2.17286682892370      0.57689583400791
  H   7.85253978166026     -2.31540544701598      0.25032121404678
  H   9.48749178817289     -1.56086922906811      2.51778546400865
  H   10.71967348062469     -2.95800243685888      0.30975329365388
  H   11.23785618872621     -1.50980621867658      1.18966523166646
