27
Coordinates from ORCA-job 12075optt
  Br  1.26596787825804      0.38230983066152      1.38380787001427
  C   2.93600482857497      0.25291042686778      0.48954356570013
  C   3.69428193225134      1.38386778902596      0.26786816619703
  N   4.97905727851405      1.17890842939197     -0.23191582012673
  C   5.73634915959300      2.41692650228061     -0.41563849147568
  C   4.84012832032620      3.46439470067373      0.24538650793459
  C   3.43027485839391      2.87115716549807      0.12289302382881
  N   2.41689071242135      3.44991837952305      0.98038321728519
  C   1.17822993381188      3.53522660657141      0.33956471905350
  N   0.07113332473230      3.88224416745653      0.85718993538332
  C   1.35049806600942      3.14364497756196     -1.10661739682470
  C   2.84936920869543      3.04200024010978     -1.26241884233741
  O   3.49122262554657      3.00293379985365     -2.31830951656711
  C   5.39305640398825     -0.05464587041934     -0.56877257953210
  N   4.72571042832077     -1.13926463703538     -0.40426976343800
  C   3.44667107298840     -1.06856492417471      0.21605969961565
  N   2.81062329874505     -2.14746794943637      0.51206330776620
  H   5.85018079397685      2.62394171618678     -1.47906355691832
  H   6.71553753497212      2.33121346386819      0.05917679411038
  H   4.90162106206263      4.43274807956621     -0.24849714390997
  H   5.08167150924480      3.57679666566800      1.30420683785291
  H   2.38345038703175      3.09894322433132      1.93158241348159
  H   0.19002219313237      4.08640874531805      1.84980047592777
  H   0.91857472655454      3.87462978273661     -1.78978826278945
  H   0.84459213095100      2.18231091594008     -1.27763102925780
  H   6.39034725728141     -0.10247617290919     -1.00320052755847
  H   3.38653307362153     -2.93001605511629      0.20859639658440
