31
Coordinates from ORCA-job 12074optt
  Br  0.96293529158977     -0.10254194139255     -0.55561100683413
  C   2.86345416859527     -0.24807337223329     -0.45986575089670
  C   3.52363275331976     -1.40019277703122     -0.34827256922922
  N   4.92952181584733     -1.33603212606036     -0.28139106039753
  C   5.44436786050385     -2.64229307678614      0.08414172025200
  C   4.37994611271995     -3.60158674857469     -0.42553007422686
  C   3.06023311821269     -2.83489896142739     -0.22619017715376
  C   2.50547059666954     -3.06766674269723      1.19315569431766
  N   2.04767284279294     -4.44933879987428      1.33838516615566
  C   0.98166440133919     -4.74035464232213      0.39094433564020
  C   1.53282874097620     -4.55469724032960     -1.01847352636068
  N   2.08590638152674     -3.22726450972152     -1.25150633644949
  C   5.55312118739796     -0.16351552030982      0.29997005739745
  N   6.74790910178616     -0.21056171083636      0.85225432335526
  C   4.81443884544247      1.04868306141569      0.18597459847041
  O   5.12772118565190      2.18150813423822      0.58606159977486
  N   3.55309875816127      0.95182382387756     -0.55091967776380
  H   5.56846464771417     -2.72573453445129      1.17490915897297
  H   6.41883048161020     -2.82227206943990     -0.37235045682377
  H   4.38298200620935     -4.55529962515664      0.10082165038312
  H   4.50639200424721     -3.77490506710478     -1.49500370450116
  H   1.69380070735173     -2.34446087451396      1.35845038049539
  H   3.28846719660143     -2.86800095486436      1.92721422314102
  H   1.73840728709936     -4.61207429419891      2.28769023446055
  H   0.11593159627983     -4.06838704986869      0.52232840364228
  H   0.64148292697731     -5.76887854119660      0.53424814211909
  H   0.75081843141424     -4.73630028983490     -1.75852648330743
  H   2.32266929194915     -5.29413509468240     -1.18207820214444
  H   1.33740542218779     -2.54533426233925     -1.28390595443080
  H   7.11079754675412     -1.15786320849525      0.84399943955109
  H   3.01162729107099      1.78564901621211     -0.37592414760925
