24
Coordinates from ORCA-job 12072optt
  Br  4.39703382934788     -2.88847642660263     -0.97736539198497
  C   5.23458591430238     -1.21539511692811     -1.28104837717141
  C   4.67426729669314     -0.22310046794689     -2.03090763588016
  N   5.48651240175521      0.91505548949615     -2.38491203501875
  C   4.65510738137634      1.80658670658397     -3.09279632112612
  C   3.43529681954458      1.30873149639244     -3.27707920866525
  C   3.31882510590953     -0.02046053919763     -2.61966237563268
  C   2.48023097659872     -1.09981664791668     -3.26694726106919
  C   2.01532486789922     -0.45419007179814     -1.99574448240802
  S   6.35763385052890      1.61662785637237     -1.08814735833699
  O   7.29508293617950      2.55465903419920     -1.64237701246870
  O   5.39726922358700      2.13222479776578     -0.14190722814388
  C   7.10963334618231      0.17803634816885     -0.57459220447918
  N   8.32487426192488     -0.01108297207454     -0.01390713190350
  C   8.33999377510353     -1.32440845537676      0.17790900599313
  N   7.26560642574997     -2.01974745339978     -0.20453602064765
  N   6.44319712142024     -1.03670447451882     -0.69011021314969
  H   5.06931132645009      2.75253088339678     -3.40555545682358
  H   2.63868031566242      1.76963044267021     -3.84203750882177
  H   2.84116171036213     -2.11640430172312     -3.21401981626112
  H   1.98166654911319     -0.82927682608244     -4.18910139059019
  H   2.08785948714945     -1.03581643428082     -1.08746787475494
  H   1.19094121432748      0.24616457381192     -2.03808875848884
  H   9.17890386283183     -1.83736744101131      0.62440205783346
