33
Coordinates from ORCA-job 12076optt
  Br  1.12524307415890     -0.17161883799448     -0.56153770636205
  C   3.00010741579551     -0.00774332548377     -0.34790620201683
  C   3.76598438595241     -1.14643465054568     -0.12088943492824
  N   3.32432947608796     -2.48921007368421     -0.11700762285548
  C   4.39006493208117     -3.25114467715246      0.54387226225653
  C   5.66890493508303     -2.47422645932106      0.18851319652382
  C   5.13257052610971     -1.07301463038328      0.06693733330222
  C   5.82428300709436      0.13388368238866      0.03669834599698
  C   7.34686291528605      0.19107326458859     -0.27236852887895
  C   8.37035863694648      0.54273724600976      0.91986401781023
  C   8.29748807947485      2.12966185335470      1.12218527619239
  C   7.01301491940870      2.27835747721282      0.28421057972528
  C   7.44911390261692      1.51367071984369     -0.98704939405819
  C   5.57880618981595      2.70578083212849      0.04495644258014
  N   5.00154476579200      1.33718363630545     -0.27637636297047
  C   3.59633216003748      1.29099201902637     -0.41290514035993
  N   2.86897166171602      2.35948222833736     -0.57949897945178
  H   2.40123089278943     -2.60688402233961      0.28149097669993
  H   4.40289651791517     -4.28599183520696      0.19702783277425
  H   4.26185948686372     -3.24534721978477      1.63451254500653
  H   6.08736380954471     -2.83835043065901     -0.76055580451982
  H   6.44248145406851     -2.59034563177889      0.95303042445189
  H   7.68614958767303     -0.70872981329308     -0.79706088037137
  H   9.37274949688384      0.21565677987257      0.63294459018812
  H   8.08926283198152      0.03127151544898      1.84238989286646
  H   9.17934332975163      2.64502376740626      0.73212580223739
  H   8.17326728198301      2.38546862311756      2.17367646162618
  H   6.59245349377414      1.51162756442756      0.94223088625667
  H   8.46506146662309      1.78132101934820     -1.29231372408442
  H   6.76658382102842      1.62310713722607     -1.82628976651856
  H   5.42759528904703      3.36847621547547     -0.81001243388438
  H   5.07687624546915      3.12658621140493      0.92338412182820
  H   3.43584401114593      3.19567981470378     -0.61827900706275
