28
Coordinates from ORCA-job 12082optt
  Br  0.40447180462349     -0.45149423385042     -0.53359157088478
  C   2.88699136655636     -0.03592723667556      0.25496154713082
  C   3.58510295290404     -1.18559161948147     -0.05668747977012
  N   3.07409832340620     -2.45590764914407     -0.30169119996284
  C   4.08507890325673     -3.18131613372736     -1.06617827235652
  C   5.41314936828807     -2.57544869956698     -0.56727405583769
  C   4.97884833854870     -1.18038681959606     -0.17872775728466
  C   5.68820173788179     -0.02614696105990      0.09347267146638
  C   7.18788804732283      0.02062164342444      0.04842742864926
  N   7.73662678318043      1.01205606581753     -0.87759206866912
  C   7.50592874607985      2.36819251999132     -1.02541752129352
  N   8.19847307018873      3.13123667485048     -1.77818663152657
  O   6.47256229086744      2.93986893010777     -0.39398798469582
  C   5.84305752667631      2.34749020164268      0.75111043605846
  C   5.00656656867096      1.14762988686957      0.43952149966409
  C   3.60554552360244      1.10699792975135      0.47216435491060
  Br  2.62032548922938      2.72486220024180      0.83738038749916
  H   2.11645653238280     -2.44325985437310     -0.63892774419533
  H   3.97912131518147     -2.99159707372152     -2.14242017378503
  H   4.02095332435764     -4.25580200636138     -0.89458990282213
  H   6.19085965999663     -2.60672746132325     -1.33122936873184
  H   5.77559700538562     -3.12480083516998      0.30864907120016
  H   7.56382899190958     -0.94251462698270     -0.29546106738325
  H   7.58520837772816      0.17076595794055      1.06052368535253
  H   8.60570464685451      0.73818250290057     -1.30098977889205
  H   8.90859520442198      2.60163321206238     -2.27345145284798
  H   5.23725841590271      3.14846617740848      1.16094538747791
  H   6.61949968459494      2.09991730802486      1.48224756152989
