20
Coordinates from ORCA-job 12086optt
  Br  0.87333426964512     -0.28588868538773     -0.09589038072240
  C   2.74634579113716     -0.15761698353278     -0.09727162087846
  C   3.55586765658861     -1.29709644988915     -0.09771308722024
  N   3.13243325544242     -2.56924890513075     -0.09766275551938
  C   4.28009069676892     -3.31198153998365     -0.09821789973577
  C   5.44359427477594     -2.54871328082742     -0.09832604393578
  C   4.99657949795552     -1.21987263382463     -0.09825405140491
  C   5.71973046375649     -0.00627682289708     -0.09828977582777
  C   5.07736222981526      1.22764471160838     -0.09807631237833
  S   3.34156785193731      1.47246261382239     -0.09773954241238
  C   5.82397141856031      2.44878602241174     -0.09805362093654
  O   5.38346124528255      3.58968122162624     -0.09816351365906
  N   7.20904774147177      2.23864347861738     -0.09829619422235
  C   7.76975595567434      1.00539988896195     -0.09843179092593
  N   7.10869687015758     -0.09011744617287     -0.09843126142111
  C   4.23941661939900     -4.73811240260983     -0.09841757529519
  N   4.24307813167639     -5.88969582553581     -0.09928534098063
  H   6.46215247645275     -2.89881197121044     -0.09857984816645
  H   7.77613553030243      3.07284383127066     -0.09835821230420
  H   8.85537802320012      0.98097117868341     -0.09854117205311
