25
Coordinates from ORCA-job 12094optt
  Br  1.26176683028198      0.34226113189913     -0.22785749272152
  C   3.12957408074903      0.13290807860296     -0.12485837665996
  C   3.62944966986391     -1.10865528817750      0.06402556674029
  N   2.97239104417552     -2.33406493741960      0.29630744159998
  C   3.94140976187117     -3.38473678787768     -0.04037740052771
  C   5.29962009184058     -2.75249203347641      0.30650589162014
  C   5.03055014711683     -1.29128954153530      0.07702058963228
  C   5.85185541675164     -0.23531574151195     -0.09008022519812
  Br  7.72377714259480     -0.44646880700735     -0.06698820062032
  C   5.34384676790767      1.11656250709001     -0.29348764348799
  O   6.05855106592758      2.09029613203152     -0.45416450912528
  N   3.94472384679603      1.21326033718854     -0.31655968957129
  C   3.37437171008179      2.56380847431242     -0.33711443866475
  C   2.77781145915675      2.91043746332443      1.03717657521226
  O   3.06669138826239      2.20712573762265      2.03408423493223
  C   1.90456032023241      4.03287987276018      1.02591234628279
  O   1.60939703698775      4.69780887037817     -0.00140994323928
  H   2.07279021043927     -2.41219350294706     -0.15828307964359
  H   3.91741374146838     -3.62753238568858     -1.11010297510104
  H   3.73955381896553     -4.29129975915500      0.52835649075018
  H   6.12244552258409     -3.13373202664627     -0.29567855407669
  H   5.54868370246914     -2.90852223877470      1.35977884411410
  H   2.61357511509944      2.63844714813269     -1.11294470862083
  H   4.18485042389126      3.23974034764852     -0.59262958209770
  H   1.48833968448495      4.29576694922621      2.01436883847183
