26
Coordinates from ORCA-job 12095optt
  Br  0.95759537865290      0.09859224175773     -0.07412516533514
  C   2.85594190218833      0.02855540215820      0.04040550465428
  C   3.57675898842533      1.20063533383827      0.01161884718219
  N   3.07889177362434      2.50636119991564     -0.16646820280968
  C   4.13598701442639      3.41496802934562      0.29080447049650
  C   5.42880939961709      2.64997946979160     -0.03447729537629
  C   4.97128230671220      1.22619659444967      0.11534923234057
  C   5.69477927425851      0.01186901726970      0.16999861543410
  C   4.98654864104133     -1.16684858642937      0.19635842306004
  C   3.54707224360107     -1.22468588444558      0.17356588027982
  C   3.13051457989725     -2.54397840318465      0.34414206362024
  C   4.10588176497821     -3.50809146236015      0.54181407081947
  C   3.53162717314926     -4.81881580837139      0.10241689312823
  C   2.04936519894298     -4.50088694046167      0.37287790766754
  O   1.88001420443329     -3.09535877007937      0.16782841216097
  S   5.68319697942594     -2.78423446322669      0.34233079942389
  H   2.16521380892746      2.65663186999514      0.23960048768228
  H   4.07690572815753      3.57753379841218      1.37534732805976
  H   4.06330505429914      4.37957958634661     -0.21492540857875
  H   6.24574129610265      2.93569368779859      0.63308665445288
  H   5.75144067125866      2.87765143793358     -1.06302287056271
  H   6.77823357246833      0.00450066338841      0.20211058431278
  H   3.84858327471575     -5.69474302474735      0.67240427688298
  H   3.70421599802384     -5.02793232162015     -0.96702982246604
  H   1.80944300874623     -4.73173821004090      1.41664560479716
  H   1.35265076392590     -5.02143445743368     -0.28465729132709
