27
Coordinates from ORCA-job 12099optt
  Br  1.39406024188526     -0.24700043820469     -0.63216626210366
  C   3.26078065308478     -0.11817269227836     -0.27769331709644
  C   3.88455760163666      1.11770024679447     -0.32805227293767
  N   3.34150137090680      2.36070314787778     -0.68762211720221
  C   4.27101765701502      3.37686623970463     -0.17594820429459
  C   5.63605417284010      2.67243744567378     -0.23244462576649
  C   5.24716395820453      1.22485369479358     -0.04168458071284
  C   6.00432662645467      0.11418713368319      0.28725847424596
  C   5.35767930069096     -1.11502621251771      0.33919942852563
  C   4.00551519359019     -1.23306646842553      0.05527769953686
  C   3.63072128372829     -2.68554020343861      0.13469645553948
  O   4.74797217989541     -3.30553674068487      0.74192891549189
  C   5.91587130372171     -2.49358194916109      0.58582221483656
  C   6.84204683530769     -2.87024045692030     -0.56929524737750
  O   7.99578795112630     -2.34101267803382     -0.53939372795279
  C   6.30121396213567     -3.65097775841181     -1.58933787659410
  C   5.75385106286678     -4.24179185586492     -2.52941292374840
  H   2.36949868454414      2.48434820780046     -0.43982188595877
  H   4.03570535314691      3.63594729276458      0.86433751103534
  H   4.23015288372379      4.28187284614633     -0.78122082769581
  H   6.32988813288713      3.04466440209456      0.52015298385006
  H   6.09634080339619      2.80879320768206     -1.21578052983950
  H   7.06903809172897      0.17537397550970      0.47637432207281
  H   3.45928275849055     -3.09008364483609     -0.87035765916969
  H   2.74479593860207     -2.86750353378851      0.74927205316163
  H   6.49772893486062     -2.54816066839642      1.51096649189181
  H   5.53844706352859     -5.18205253956239     -2.99705449173758
