21
Coordinates from ORCA-job 12091optt
  Br  1.36718951917647     -0.18777079129786     -1.21211116111410
  C   3.16195685701038     -0.07895583405064     -0.64969369160836
  C   3.72826748564629      1.16401542952607     -0.46390973190624
  N   3.14758584942765      2.39655642729190     -0.63944283311642
  C   4.10748819399450      3.25992505211934     -0.33832746346657
  C   5.33435641952563      2.65139922886530      0.03624284218131
  C   5.09509480855089      1.28629089399641     -0.04114011732263
  C   5.91520795621783      0.13854619076047      0.19354090734675
  N   7.16009504938857      0.29137815278800      0.61651147017257
  C   8.09027480204312     -0.69595268712207      0.57865348613261
  N   9.13271753973438     -0.67967340127887      1.33215330306412
  C   7.96964912674958     -1.75171747894814     -0.48177426004486
  N   6.98170617535774     -2.51580772195533     -0.67368679302828
  O   5.96349899432526     -2.27143818380069      0.29990830261873
  C   5.26370263533313     -1.13188125780691     -0.01020364202993
  C   3.94909652629394     -1.23344612385706     -0.41827012332870
  Br  3.22678410946250     -2.96727215824605     -0.63671007513552
  H   3.91610983847010      4.32497563924165     -0.39072038054965
  H   6.25372827059677      3.13388656229990      0.32623744296584
  H   9.74445080234256     -1.45703612143222      1.08872481612605
  H   8.80503904035263     -1.89902181709320     -1.16298229795671
