27
Coordinates from ORCA-job 12106optt
  Br  1.18629916727937      0.13370743837767      0.55063819700397
  C   3.06702818778109      0.34983711142010      0.39657431972500
  C   3.58528477541685      1.57075395902600      0.00338522992467
  N   2.91675299788534      2.73157171764358     -0.36144208189539
  C   3.91037657791264      3.82593298593816     -0.24188152428393
  C   5.25013896174126      3.12369568345867     -0.55780565046230
  C   4.97565776753332      1.72609305308153     -0.08045740442958
  C   5.82817605675746      0.69048817873136      0.22531902637984
  C   5.29132499065085     -0.53961435150836      0.61757712249528
  C   3.91884730326365     -0.70844633113662      0.70153963029155
  C   3.62424601167711      4.91430099480225     -1.18803039271228
  C   3.44651521382781      5.86356966166487     -1.90247273794124
  C   3.81825774878886      4.40935634899853      1.18346744173665
  O   2.70395925636051      4.38248027003944      1.75649781379979
  C   4.99607065481747      5.12811673088770      1.76503552220586
  C   5.68434136084229      3.97729894567354      2.45026060806363
  O   6.80233171468573      3.55043468896118      2.13933524606086
  H   2.11146339656100      2.94767531705778      0.22422661552617
  H   6.10014523090057      3.58843313208056     -0.06369092495956
  H   5.41604855062464      3.12637983019810     -1.64021759746850
  H   6.89963168406980      0.84238502026218      0.19268026472294
  H   5.94466935404273     -1.36345191192374      0.87404534575749
  H   3.49696280281455     -1.65346863238615      1.01685490704389
  H   3.27537344574168      6.70204941631396     -2.53182532240777
  H   4.64018512571190      5.89534472387417      2.45965993188258
  H   5.66498203481743      5.56943544107770      1.02330327380143
  H   5.08192962749399      3.48764057738577      3.23142314013893
