22
Coordinates from ORCA-job 12103optt
  Br  1.27290699310610     -0.27950594338394      0.15224442049293
  C   3.12503191477130     -0.03525953762218      0.00919001002286
  C   3.73368605229609      1.17665193280973     -0.06129218833451
  N   3.18408922693356      2.41892261874893     -0.05971315342497
  C   4.25350513143143      3.24140351073804     -0.12319031088908
  C   5.49245655426097      2.60917859010859     -0.16354079683677
  C   5.19733252622164      1.22536637115249     -0.12751754274053
  C   5.91498209726562      0.03148747795695     -0.10127215389566
  C   7.38186183357328      0.01931962155580     -0.08496000051955
  C   8.23311670743441     -0.96256312568633      0.36323064506765
  N   9.49798995493036     -0.46554205260935      0.18791804057745
  C   9.37313845599695      0.77453176141215     -0.35210612471112
  N   8.12436905140321      1.09767029255868     -0.52561659471538
  C   5.20130273245108     -1.17212141380384     -0.05219893927180
  O   3.80245870531716     -1.21079055720320      0.00281666112660
  C   5.75049907537323     -2.45845470532972     -0.07722630588335
  N   6.21095077883537     -3.52446313949883     -0.08765231784118
  H   4.09474594349173      4.31377626138050     -0.14190196695930
  H   6.46356187420054      3.06531152618664     -0.23597765635380
  H   8.05523118861349     -1.94106480803081      0.77032712210152
  H   10.35424242276305     -0.94435214764006      0.40146870008526
  H   10.22654077932934      1.38649746619975     -0.59802954709728
