22
Coordinates from ORCA-job 12102optt
  Br  0.95380705769574      0.12621285739158      0.25742666307343
  C   2.83260788896951      0.10886567191068      0.11055808663295
  C   3.58419203189219      1.28874734165343      0.06572226873392
  N   3.10283449834378      2.54579391743956      0.01563119248432
  C   4.19998863003842      3.33953825487986     -0.06078390282957
  C   5.39863941478848      2.63224782847339     -0.07745663527137
  C   5.02369690039317      1.27612636933953      0.00542842399762
  C   5.79854087044893      0.07724387191930      0.00383566542534
  C   7.27952297983373      0.15802317803875     -0.18884510963066
  C   7.91802367021845     -0.41583781599220     -1.41625132048445
  N   7.80252442800112      1.01022619241926     -1.22151550537147
  C   8.89348531380646      1.82588630292021     -1.05547169421479
  O   9.13200008955225      2.49646482369592     -0.08460468163918
  C   5.22135527827913     -1.12948459048057      0.20959122354575
  Br  6.23926523772987     -2.74011861496220      0.31369323219388
  S   3.52883124142698     -1.44408896490386      0.49822651681541
  H   4.08676384259150      4.41543484770889     -0.09596677499648
  H   6.39896360717581      3.03441650548327     -0.12168909626951
  H   7.87744328656627      0.12477149555301      0.71809640490690
  H   7.27448746219549     -0.84317564263779     -2.17470403725147
  H   8.90109234371962     -0.86193947953035     -1.31253786696837
  H   9.53093392633301      1.84664564968030     -1.95638305288220
