27
Coordinates from ORCA-job 12116optt
  Br  1.26962944741125     -0.21214153853280      0.85906382115341
  C   3.06888106217620     -0.17527444899581      0.31224028957796
  C   3.78467518163717     -1.28786876276852      0.05176535677334
  N   3.46689169200744     -2.62740302926194      0.09624156769633
  C   4.59620610336292     -3.36419457065832     -0.21255007049833
  C   5.64190784464765     -2.48356450715600     -0.49030313154951
  C   5.17672517141291     -1.16051737362151     -0.33174646600382
  C   5.74706840749607      0.10491606001641     -0.43941420211200
  C   4.98979208903205      1.28283242481310     -0.16923429252261
  N   5.34704258611200      2.53559703515539     -0.21879568896336
  N   3.66056312485686      1.06290615074704      0.20829599038281
  C   4.57952641985496     -4.84249927024984     -0.32347771899803
  C   3.96442523880165     -5.61171568184233      0.87683622822648
  C   2.45560872090366     -5.57771945231680      0.94408244760542
  O   1.83244921516047     -4.70196676406657      1.49892575244463
  C   3.80310997932358     -5.08571992607281     -1.59103991652122
  O   2.57045186814023     -5.18828198746996     -1.58194797792182
  H   2.62222335035393     -3.01891351548526      0.48564463677412
  H   6.63549777988845     -2.78598122615294     -0.78200263831299
  H   6.78261965589415      0.22952522301943     -0.72591136046962
  H   6.32020985358304      2.59022944037438     -0.50097606260907
  H   3.12447831219140      1.89577708242292      0.38838619036141
  H   5.61695404486291     -5.15667399361056     -0.45784091906821
  H   4.35241426527808     -5.18915280813788      1.80516344123856
  H   4.27616506850095     -6.65579735687042      0.79700206068083
  H   1.93054121572376     -6.44192376734503      0.50884706319711
  H   4.37394230138619     -5.00747343593328     -2.52925440056181
