25
Coordinates from ORCA-job 12115optt
  Br  1.55933915638742     -0.43458124258265     -1.36556436031082
  C   2.99731664245617     -0.14449718054178     -0.07813113075179
  C   3.69061316969705      1.07176519207159     -0.07472854255537
  N   3.21623717738953      2.31768628268104     -0.31983320621252
  C   4.28362196073206      3.12201975260560     -0.17786510918463
  C   5.46925089437469      2.43675333122355      0.13310642298452
  C   5.09873082099857      1.08877168466134      0.20006373445265
  C   5.81390705782567     -0.14613081140361      0.20898602879653
  C   5.13575249407332     -1.30875562131380      0.22508919800282
  N   5.75863147371371     -2.56825294798450      0.08814590576723
  C   6.85166268277729     -2.99469905991366      0.78934001424514
  C   7.19066984410820     -4.24503087821048      0.33845784840994
  C   6.25492053749749     -4.59237395744195     -0.67177268531953
  C   5.38679591707667     -3.53894742833188     -0.79927550820504
  N   3.72169822583721     -1.30868414933587      0.29324906047481
  C   3.04284517982659     -2.25445305676084      1.04118483020364
  O   3.53489344396593     -3.19135488775524      1.61857872391829
  H   4.17621661777500      4.19230886901768     -0.30364330984653
  H   6.45405542721517      2.85983796185920      0.26442819511174
  H   6.89060062360756     -0.18144718020378      0.09702080457493
  H   7.26773928155297     -2.37465739237885      1.56467537575729
  H   8.00383154707775     -4.84795503049599      0.70766803938828
  H   6.21781986746081     -5.50936497992161     -1.23646271711398
  H   4.53329081996906     -3.38712445556815     -1.43872536869490
  H   1.96355913660401     -2.04683281397536      1.03700775610730
