24
Coordinates from ORCA-job 12118optt
  Br  0.95219095912495     -0.13814665295415     -0.92216727465425
  C   3.14635024954921      0.11346330663484      0.27075295229439
  C   3.86258899278714      1.25075996412603      0.08676153658068
  N   3.44863980167921      2.58361833257239     -0.07586369803239
  C   4.57203721647985      3.35708389942605     -0.14552255770181
  C   5.70428893114564      2.60258776870829     -0.05297959553705
  C   5.29326858871979      1.23110343932208      0.09368328707254
  C   5.94810957360464      0.03452122059701      0.21823660957376
  C   5.19336441624529     -1.17570855843287      0.36123880909316
  N   5.58750050119658     -2.38536122618948      0.48374446906676
  O   3.79973444389190     -1.02796309166256      0.39717083755873
  C   2.06906273504158      3.00712824610053     -0.08014677536300
  C   1.40553739877097      2.70287429197229      1.28223101300518
  C   0.03750339381409      3.20308828311270      1.36034213158594
  N   -1.02489601639735      3.62566705126692      1.43498042371812
  C   1.98687485078413      4.43752507297496     -0.40141988977278
  N   1.93023836637178      5.55659492490873     -0.63867345245365
  H   4.47963106289701      4.42476642535454     -0.27324234639354
  H   6.71189425412447      2.98019474848806     -0.09844948304416
  H   7.02655104608742     -0.03846284613598      0.21489497528034
  H   6.60264833637050     -2.40220785682543      0.45793636539918
  H   1.51939293632925      2.44474423315999     -0.84342284907244
  H   1.99451468732115      3.15127209208300      2.08345545410165
  H   1.39797327406058      1.61685693139194      1.39745905769461
