22
Coordinates from ORCA-job 12121optt
  Br  1.51640777573954     -0.29435952769633     -1.05779313823778
  C   3.28811963313148      0.01308073941044     -0.52916978947197
  C   3.81825827568117      1.23916822510894     -0.21971549056960
  N   3.26807742575429      2.47509986770656     -0.28485567951603
  C   4.25862593008139      3.29824835330097      0.13701147761465
  C   5.44302561482274      2.65286479630601      0.48056938197102
  C   5.18690386817112      1.28031301003186      0.25895218932819
  C   5.88628820130225      0.08098960083778      0.41922753441070
  C   5.29342747826175     -1.11223475579553      0.10107513570639
  O   3.99345375356463     -1.14877985978118     -0.39236359266664
  C   5.81494329656995     -2.44314324528163      0.21805594704012
  C   5.06392842075445     -3.57535931313749     -0.05648706427660
  S   6.00355130711668     -4.96885456619300      0.19543893153626
  N   7.35747060990506     -4.16702771608880      0.64087816584195
  C   7.13465740361347     -2.86888942217773      0.61206933825950
  C   8.22714551917877     -2.01242192355651      0.96327777095695
  C   9.15581661482116     -1.31341380541079      1.25851190430949
  H   4.08104234144498      4.36624940474895      0.18144168185079
  H   6.35422051297089      3.10447174343979      0.84147515464471
  H   6.89529582626068      0.06225573493159      0.80375196866697
  H   4.03570794502279     -3.60177312381207     -0.37449225210201
  H   9.97163224583067     -0.68248421689183      1.51514042470292
