25
Coordinates from ORCA-job 12123optt
  Br  1.00991563657816     -0.13404014133606     -0.09231188488235
  C   2.90657299904220     -0.11343538556190     -0.00794540292765
  C   3.65154866254222     -1.26540309286147      0.10459726542193
  N   3.18670185386607     -2.58077271019533      0.21799198322757
  C   4.31219142987730     -3.45636772659716     -0.14849286380608
  C   5.55247495793760     -2.64304660368755      0.25289415857289
  C   5.05727943377979     -1.22313845385175      0.13032234426697
  C   5.79280285879201     -0.05097300044888      0.03279836131939
  C   7.27041508488463     -0.11236321502507      0.05175440343393
  O   7.84403542445660     -0.95782525575831      0.80641774242005
  C   8.02686146368974      0.69115841984684     -0.87718780286257
  O   7.59562423134423      1.41189840967663     -1.78406402320935
  C   5.02281077096180      1.13799094746775     -0.03689724126308
  C   3.61925920471694      1.08317951232617     -0.06461893396780
  N   3.19756371772823      2.38635453789031     -0.09761952557428
  C   4.33481080466916      3.16059543567162     -0.05758244423325
  N   5.42354892450583      2.46471691800155     -0.01418388987660
  H   2.31402086018879     -2.76097641539281     -0.25835620446478
  H   4.32152124481175     -3.64098241267266     -1.22983783711939
  H   4.23742481253156     -4.41257138787313      0.36909662520877
  H   6.41962375081236     -2.83976277877802     -0.37450253175306
  H   5.85328320813883     -2.84740928763635      1.28257240509393
  H   9.11851166581143      0.55163439535309     -0.73988858147668
  H   2.24229960228820      2.69592696693904     -0.12054779297892
  H   4.27689739604440      4.23861232450346     -0.06040832856959
