24
Coordinates from ORCA-job 12127optt
  Br  1.15937978773957     -0.54280662818840      0.30598780292002
  C   3.03136379637735     -0.45774477667261      0.15936938055336
  C   3.79717513114298     -1.54238816329314     -0.06705439912954
  N   3.44216057047548     -2.86561362461969     -0.29822555635890
  C   4.66390716671943     -3.68988985407676     -0.22022143028522
  C   5.84712265910260     -2.69769674471973     -0.32946321901457
  C   5.21710233620918     -1.35009463286361     -0.11025707835435
  C   5.78491578740921     -0.13322854662932      0.04327333707420
  C   4.97030505353763      1.04565812680114      0.26195494259897
  O   5.37742507845628      2.19492366725724      0.39651435042164
  N   3.60926976098613      0.78136367413129      0.31871411790309
  C   4.64955251991552     -4.49802375074681      1.08766733073068
  O   3.68027584516468     -4.38454225924757      1.85897334220246
  C   5.78083368684739     -5.36790377595592      1.25830595959369
  O   6.69365331408306     -5.45904870799840      0.38437984335485
  C   5.82515258136956     -6.15210966078986      2.47500874326288
  C   5.88343384077895     -6.81272120172424      3.48068880260851
  H   2.76623149987628     -3.21837957354651      0.37846272347146
  H   4.69640223696320     -4.39342544871118     -1.05245029511839
  H   6.31171446193079     -2.74503848849461     -1.31580245767078
  H   6.62488598346275     -2.91818692010525      0.40008885429361
  H   6.85577495243465      0.01530337212491      0.02485149332984
  H   3.02123227934122      1.58384573389995      0.48590969677104
  H   5.92472966967604     -7.39325181583087      4.36932371484144
