23
Coordinates from ORCA-job 12129optt
  Br  0.97559621670342      0.09404963659401     -0.73252512837046
  C   2.85074636485478      0.05788075562087     -0.52864604575713
  C   3.58351349616677      1.22270311775317     -0.25410777021053
  N   3.09963512843720      2.48058647832079     -0.25496643590423
  C   4.16728230506625      3.26933561996193      0.02100767562831
  C   5.34960197323143      2.55740491120450      0.19911263745880
  C   4.99664381304063      1.20316736325504      0.02433987546866
  C   5.74540424432143     -0.01147357033782      0.09046610639918
  C   5.18065261238157     -1.23235867696407     -0.04323464449099
  S   3.49624826622955     -1.55012015030958     -0.33193948143682
  C   7.24445261077812      0.02518767085870      0.25060929689203
  O   7.66580627491028      0.75323599325455      1.41672717804320
  C   8.55647710323321      1.71885815591210      1.07660883116104
  N   9.10908189632663      2.51416921852615      1.88881546078658
  C   8.74238722405378      1.67744907794207     -0.38140102346660
  C   7.97263717484893      0.71573596837791     -0.86910889247623
  H   4.04491607771471      4.34244718286200      0.09187412672828
  H   6.31554558226111      2.96901682169684      0.44756995521966
  H   5.76874498741825     -2.13850357496782      0.03290094550576
  H   7.61199660048294     -1.00091058877043      0.36090012833597
  H   8.77274605231139      2.33244553964983      2.83336748287625
  H   9.38255006959639      2.37003647171500     -0.90316796128255
  H   7.82933392563112      0.43165657784426     -1.90120231710820
