26
Coordinates from ORCA-job 12135optt
  Br  1.17976451838417     -0.44248379149137      0.77407084482225
  C   2.98695162455747     -0.05801445778904      0.33698478802764
  C   3.82246341084917     -1.09362184973504      0.01306765508311
  N   3.45017002628320     -2.41286031750933      0.03139276514312
  C   4.42291547859903     -3.23337300697556     -0.67679714206543
  C   5.71913262311063     -2.43462294081733     -0.51080725168549
  C   5.20490265253764     -1.01333010940723     -0.36192511221067
  C   5.89255128720769      0.16717637883168     -0.39042102425258
  N   7.19320000391305      0.35331282839644     -0.64543324613726
  C   8.10257999077412     -0.59674951039397     -1.26449534016464
  C   9.41484768081287      0.15080498003421     -1.45319628088935
  O   9.38459662003234      1.42122682612070     -1.58749159782368
  C   10.57247244418549     -0.64593253907750     -1.52086585639440
  N   11.50490810469225     -1.34642048259980     -1.56896095686686
  S   5.07345201969912      1.68729555053821     -0.04050024696727
  C   3.37457369407773      1.31535363721067      0.37270218932410
  N   2.59387804655111      2.28355985368801      0.66865308160521
  H   2.46619874174178     -2.62668894551454     -0.00864000900623
  H   4.16319571943456     -3.32385747870579     -1.73783854489480
  H   4.48084307792608     -4.23146363806301     -0.24412144800917
  H   6.38778282650559     -2.58523029057680     -1.35260633680300
  H   6.24167318046428     -2.75364456312576      0.39642619491853
  H   7.57502467185236      1.29514370551809     -0.75200369676888
  H   7.68140514065329     -0.91933626703390     -2.23017543382490
  H   8.24221629812752     -1.48152599430404     -0.64140678457585
  H   3.06830011702720      3.18228242278204      0.63238879041652
