22
Coordinates from ORCA-job 12131optt
  Br  0.89049443460679      0.77899767006816     -0.99407372669861
  C   2.62193779544259      0.21952775510383     -0.50230428781386
  C   3.60187957339709      1.09750693445647     -0.02490856651656
  N   4.92080092296177      0.59485522034330      0.18966202893945
  C   5.79637257990262      1.64928034612548      0.74266605541313
  C   4.93589349911289      2.86185513414620      0.61393903146535
  C   3.65251474646024      2.48641270269699      0.21420514464046
  C   2.60320328089449      3.42580260843859      0.03436081991883
  C   1.78272243988913      4.29773684882437     -0.09074225810773
  S   5.29002393268622     -0.94401453967678      0.69542980334291
  O   6.64858741064517     -1.19767174618345      0.29871336624246
  O   5.00864235627612     -1.09079478076879      2.10102221765313
  C   4.13084317453224     -1.76018822637169     -0.26211066802468
  C   2.95885883317004     -1.12046444633750     -0.63710093752405
  O   2.17161630258498     -2.08478629760632     -1.19406347265826
  C   2.90625928981975     -3.23579580344433     -1.10588578286183
  N   4.05626847063072     -3.10409505271366     -0.55941453097946
  H   6.73169159178031      1.68281629902624      0.17530227451800
  H   6.05358154235598      1.40841253543761      1.78606013545428
  H   5.23847889954623      3.85664738616816      0.89408054736509
  H   1.03449746642004      5.04105038377119     -0.21523411121026
  H   2.45083145688453     -4.12709093150406     -1.50160308255776
