23
Coordinates from ORCA-job 12139optt
  Br  1.19806064531296     -0.34881673257087     -0.38966297878821
  C   3.04868212305019     -0.19491811113139     -0.18810578574811
  C   3.65117626370555      1.05304665003802     -0.22882958427505
  N   3.11071494717849      2.27225690231489     -0.40539824931807
  C   4.16598555755284      3.10316608128477     -0.35709030643521
  C   5.39743571579405      2.46526098063522     -0.15048098364431
  C   5.07473256818299      1.10906655092561     -0.06223088526510
  C   5.73610139246572     -0.10944959229257      0.13836420058597
  N   5.11954466290028     -1.26109426442187      0.18506842059112
  N   3.78682122516152     -1.28641758946732      0.03462548388659
  C   3.21870722832517     -2.63650859164520      0.01157755952571
  C   2.86812417113167     -3.04394971558966     -1.43212870116862
  O   3.14329114812713     -2.28833009314771     -2.37082701876246
  C   2.22507143114295     -4.32673813456047     -1.48464494648837
  O   2.00216392358531     -4.99887543648992     -0.43453080186273
  C   1.84175671255044     -4.81554711087562     -2.79094444918152
  C   1.50986894893334     -5.24163930764819     -3.86745657074420
  H   4.01381207035177      4.16833708280293     -0.47604342697738
  H   6.36983987090403      2.92511209129763     -0.07838520707176
  H   6.80946711202461     -0.17540191923638      0.27121205543932
  H   2.33743899470090     -2.68149035665119      0.64785392768967
  H   3.97558108204144     -3.29515272164632      0.42661895295418
  H   1.21662220487658     -5.60991666192439     -4.81956070494143
