23
Coordinates from ORCA-job 12130optt
  Br  0.97445380511212      1.01662319065904      0.39595132638311
  C   2.79012785224437      0.51733829955147      0.33941794060886
  C   3.79556658740887      1.45473109710450      0.25276769456265
  N   3.61041271125380      2.80599273138518      0.22264897486438
  C   4.83962874025701      3.30555845140280      0.16412430899170
  C   5.86143188291001      2.32357532818925      0.14788868236436
  C   5.20961917710115      1.10593164234499      0.20411477248508
  C   5.69871958238275     -0.25578343832076      0.21587098633437
  C   4.77193443818818     -1.28820467585949      0.32778406630085
  S   3.09198292104425     -1.13545767732371      0.41875591163290
  C   7.11290351923327     -0.52988304088754      0.06357457212344
  O   7.97833207143520      0.35521351347704     -0.02345808280390
  C   7.57027653291634     -1.99344254444078      0.02995859106076
  C   7.47549586112976     -2.51630069431366      1.43555216658933
  O   6.64277044995558     -3.33054472070232      1.80171333255844
  C   8.42463783646972     -1.94460030703880      2.38180213701824
  C   9.24143453385626     -1.49697040269353      3.14013874923766
  H   4.98649727565930      4.37854532804892      0.13342413545627
  H   6.92536295580772      2.47209643387802      0.09968234610799
  H   5.06460266620439     -2.32582113276720      0.40772715720495
  H   8.60585049820908     -1.97587232731746     -0.30754514052484
  H   6.96393225835654     -2.62611204137910     -0.61938112956063
  H   9.95602584286416     -1.08661301299687      3.81148650100404
