23
Coordinates from ORCA-job 12147optt
  Br  1.12394794253592     -0.24087377308219      1.06634440037021
  C   2.84653738242398      0.05354696906644      0.17348037664485
  C   3.62699100040807     -1.06845363732497     -0.09358698828568
  N   3.26266923676650     -2.34495999648421     -0.44969793581293
  C   4.39381368100541     -3.07300212976087     -0.71552397308591
  C   5.49738037717682     -2.26966635954533     -0.54463947305967
  C   5.02723055686346     -0.98900195872852     -0.13619394089913
  C   5.62822166505790      0.23051185246625      0.23437603153314
  O   7.02124691339769      0.31025961387743      0.34226562016942
  C   7.68088428103894      0.92014312963071     -0.65849150366903
  N   7.26046340800831      1.36055685825583     -1.75980073835522
  N   9.04281438756050      1.01650402767282     -0.35815444120237
  C   9.65166234030798      0.69760825766103      0.81701810805224
  O   10.83862755668282      0.84454955083944      1.00520795072381
  C   4.88327561994356      1.34195065473353      0.65043433099878
  O   5.27918794481405      2.42328179892743      1.04094922729184
  O   3.46837976839843      1.18782100846517      0.57565279336248
  H   2.31922415869784     -2.68788135438934     -0.43038504872483
  H   4.32901405690183     -4.11005953648910     -0.99902931932230
  H   6.52402558133824     -2.56624876479430     -0.68170137243212
  H   6.25251119719543      1.22493616700796     -1.81984711348125
  H   9.60878171843845      1.43990107760816     -1.07878994264919
  H   8.96210922503765      0.29657654438666      1.56711295183287
