22
Coordinates from ORCA-job 12148optt
  Br  1.38996493594268      0.01356507918356      0.77656453090552
  C   3.18903591305437     -0.02642876885187      0.20354256825131
  C   3.85394436062807     -1.25831493542544      0.09394840758308
  N   3.39962684185529     -2.52156367085948      0.32463312203421
  C   4.42433781653117     -3.43242654304682      0.11470673859661
  C   5.54158372302027     -2.74282591284719     -0.26848416308272
  C   5.19539659514159     -1.35769578337259     -0.29021631011706
  C   5.83109444487739     -0.15899246133132     -0.67146185708412
  O   7.22100365192168     -0.07473806379691     -0.43214263291337
  C   7.96153182486582      0.63759423571835     -1.27056811481266
  O   7.61953935488883      1.17148683832322     -2.28226998824703
  C   9.39245639750726      0.74733679597356     -0.73984480732144
  C   9.97486843359105     -0.52946041046820     -0.33873121112811
  N   10.46973634560964     -1.51924773953331     -0.04253591200302
  O   5.24024662398504      1.03766415181468     -0.36803995732523
  C   3.88536987463625      1.18123085236578      0.01301302393654
  O   3.49637288444128      2.32433700453860      0.14455170906461
  H   2.46632886087765     -2.72672095356313      0.63469143895966
  H   4.26583611758345     -4.48625657880484      0.26400565671817
  H   6.50316283446052     -3.17028992013697     -0.50096426210718
  H   9.37459892999141      1.40679815207026      0.13024018235644
  H   10.00696323458919      1.20194863205009     -1.51363816226419
