22
Coordinates from ORCA-job 12140optt
  Br  1.22367316822537     -0.11381821377130      0.02846757173423
  C   3.07850062347692      0.11242838001155      0.06682084127385
  C   3.72509022546353      1.32628290887339      0.07411237185785
  N   3.26449542842813      2.58478493302848      0.06507174429548
  C   4.39118599294443      3.36170357198245      0.07541866850457
  C   5.58359813775824      2.59467699837282      0.09163235302257
  C   5.16556641810572      1.27853195533321      0.09184965199560
  C   5.77132997482456     -0.00554436748236      0.10207918952514
  N   5.14020244912598     -1.12890078733366      0.09660107904431
  O   3.74408138993758     -1.08256239498836      0.07812753663796
  C   4.31467931169780      4.78919420230921      0.06901080001424
  C   3.12978399271996      5.48594222421748      0.05954829388368
  C   3.15724676009676      6.91052617371170      0.04985169088956
  N   2.21617778968858      7.78992940885613      0.03846722788226
  N   4.46280391878816      7.40105262352432      0.05289409063506
  N   5.60025508787982      6.69784137606450      0.06355740631409
  N   5.55549172323471      5.44630692391232      0.07178140571128
  H   6.58688449694481      2.98830946064242      0.10117965618638
  H   6.84928609218870     -0.13342593081651      0.11605130196904
  H   2.19091708581221      4.95090533898637      0.05832248629372
  H   1.31624467010743      7.31906383764344      0.03782371462248
  H   4.58650526255055      8.40077137692239      0.04533091770664
