25
Coordinates from ORCA-job 12158optt
  Br  1.35229695559993      0.50719876454618      1.69600005917045
  C   2.84684561930529      0.33057339908672      0.49021013613145
  C   3.57705067416846      1.45525986761157      0.07902649819501
  N   3.13179518900212      2.71165477819487     -0.18854395290785
  C   4.21109874817504      3.36463249304613     -0.62292148252338
  C   5.38135073663812      2.57168068383112     -0.65800589439429
  C   4.95841133664456      1.32673304405410     -0.19448772375299
  N   5.59838518611569      0.08342023244248      0.03059295678332
  C   7.01249546229512     -0.21748587354415     -0.20145625575235
  C   7.81416289045536     -0.15270474012859      1.08897930973114
  O   8.05557682749589      1.19416976035056      1.49284099239482
  C   8.49468594636580      1.99716644908612      0.50517148414764
  N   8.44244722804394      1.80646143280138     -0.73611466118190
  C   7.71837393514261      0.64845527420254     -1.24607503936688
  C   4.90319183232158     -0.95616890420464      0.58613223995259
  O   5.41966291392966     -2.02100369470465      0.86962394940073
  O   3.58766934105959     -0.80304237330190      0.81677128499982
  H   4.14982296444069      4.40798522850946     -0.90587677974965
  H   6.36010234313123      2.90006401204727     -0.95918839930469
  H   7.03773643591902     -1.25389336660100     -0.53522923191659
  H   8.78264964558054     -0.64305083960888      0.93859368054281
  H   7.28477458782628     -0.63869968370535      1.90289854959812
  H   8.92959686862178      2.90670872011871      0.91042673770624
  H   8.43862010476689      0.02301527306034     -1.77805589649272
  H   7.00219622695464      1.00587006280959     -1.98631256141087
