26
Coordinates from ORCA-job 12155optt
  Br  1.09116432858488     -0.11350129612004      0.26992456924372
  C   2.98855324227025     -0.00165820360838      0.18756651506604
  C   3.70759322849937     -1.16038217566028      0.19947716299681
  N   3.29305793522916     -2.48439223459072      0.31363965791024
  C   4.41133979334285     -3.32682860312393     -0.14321097711415
  C   5.65983474218667     -2.49202461550594      0.19031252027756
  C   5.11080551800318     -1.08900218909071      0.12210971632802
  N   5.77938694308402      0.03878999481892      0.06350706907764
  C   5.09643537075051      1.17993604673050      0.05331711980989
  C   3.65801251128937      1.25704415758717      0.10635348510349
  C   3.00657443606640      2.49369496046793      0.07463202231143
  C   3.74646807720140      3.67076442675686      0.00081612937046
  N   5.12805808483508      3.58485923957689     -0.03930671907967
  C   5.88574053410372      2.43657108797102     -0.02527959165136
  N   7.16931946894643      2.42316281940351     -0.07406206040999
  C   3.21508435953663      4.98102381077843     -0.03339489439663
  O   3.92010094374423      6.01543743337011     -0.09011699335191
  H   2.38079280197370     -2.68960610286596     -0.06874875544822
  H   4.35671887894370     -3.49277653857218     -1.22577006618823
  H   4.39123395665337     -4.29284087404800      0.36053159509053
  H   6.47960917870662     -2.66550979404917     -0.50558094675192
  H   6.01756759301174     -2.71994477657933      1.20022443518370
  H   1.92860310881058      2.55621373517506      0.10933447080934
  H   5.59118983238968      4.48349287956509     -0.09158079741667
  H   7.51954495562173      3.37898813763553     -0.12566408362761
  H   2.11521017621467      5.04448867397761     -0.00603058314253
