25
Coordinates from ORCA-job 12156optt
  Br  4.11530293435961     -1.52340451029563     -3.18180714267513
  C   4.65318661160471     -1.03914872478643     -1.43284489548042
  C   4.35129470252852     -1.88253706054532     -0.40694778758292
  N   3.73763459831275     -3.13336464522933     -0.39522215850856
  C   3.27971021152435     -3.36842352790145      0.98512918323119
  C   4.29377314061875     -2.59430077903760      1.84531146482253
  C   4.71498088167331     -1.49965820943153      0.89518934138696
  N   5.35208981597930     -0.39687866527480      1.17068015080326
  C   5.68302310224344      0.44090694540063      0.17816286694604
  C   5.33926212285499      0.20282424755764     -1.19914654054848
  N   5.49203428229018      0.98787843993993     -2.27163124800292
  C   6.17340745567235      2.12017211513693     -2.39151200478220
  C   7.09724675568679      2.76675368938280     -1.52455687185778
  O   7.75107694896728      3.76724555163963     -1.84730094653076
  N   7.33413483638338      2.26223622612580     -0.22508571134062
  C   6.43911899316238      1.63412366297442      0.65233151432307
  N   6.35457358036530      1.98286087135782      1.87822897044179
  H   3.06635730036915     -3.29114325005449     -1.13381837959305
  H   3.25365208591912     -4.43544357346631      1.20450279299527
  H   2.27591624067646     -2.95371594546697      1.13980254106153
  H   5.14705706506800     -3.23055971812611      2.10178544399324
  H   3.86316868876002     -2.21456431069070      2.77058917289741
  H   6.08451486823669      2.62448453817237     -3.34845100130588
  H   7.93561030688497      2.92334747737555      0.24876900928477
  H   6.95687246985807      2.78630915524317      2.05284223602164
