22
Coordinates from ORCA-job 12157optt
  Br  1.94336713642765     -0.77138040993025      1.91278140687529
  C   3.20604799222287     -0.30187195278212      0.51555382200590
  C   3.63388212146023      1.00674202455126      0.31087450297448
  N   5.03627837492705      1.11908662944690      0.07517429213078
  C   5.35999446767148      2.43955940336832     -0.10037928159200
  C   4.25667519624726      3.19229926760492      0.12189955651112
  C   3.10843041234883      2.32623134569464      0.34320257635301
  N   1.89898246619304      2.83548026994596      0.55911478166690
  C   0.76519707008927      2.16191580969705      0.27791359083160
  C   0.46386214679881      1.10625505934522     -0.56626140190003
  C   -0.92248578412271      0.82244610750709     -0.64076266010114
  C   -1.69674691123468      1.63225504379248      0.13327586776248
  S   -0.72175778734055      2.77717751867922      0.97769916201329
  N   5.77817983191559      0.12008690685047     -0.49524412634305
  N   5.37618379534649     -1.04302231635692     -0.31292191559354
  N   4.26086627716393     -1.24786953296116      0.44774867347479
  H   6.36686501593646      2.70543580890991     -0.37751290116331
  H   4.19335780688431      4.26786522806022      0.11351858105793
  H   1.22732984683826      0.55734411993035     -1.09711719889001
  H   -1.33371164493643      0.02991764393969     -1.25325338744343
  H   -2.76677937754774      1.61489344051373      0.25701326885849
  H   3.96898154671039     -2.20984741580705      0.36768279051047
