21
Coordinates from ORCA-job 12153optt
  Br  1.81141741858043     -0.74091041640234      0.09142436726959
  C   3.64625172197899     -0.34448369913926     -0.01117107180336
  C   4.07755595248400      0.96867547775795      0.07061554335533
  N   3.37172060780580      2.12501087978178      0.25985825016104
  C   4.28876636995873      3.08432307727634      0.28067901428765
  C   5.62619859562591      2.62313310183190      0.09426409426026
  C   5.47714974824289      1.26258309425659     -0.03463930493765
  N   6.36392351076079      0.24325404941477     -0.29006847212810
  N   7.70171482572636      0.28756158604796      0.09711974715312
  N   8.28613591555346     -0.24933938847569     -0.85314132267045
  O   9.21312426047922     -1.13189245671127     -0.29190110177392
  C   8.39488746781110     -2.18317199246197      0.20502640152342
  N   8.98006315547058     -3.19218692071143      0.69616701381912
  C   6.92634959670798     -2.11526402208072      0.08582084031597
  C   6.01602184651393     -1.11334621010967     -0.14982324890423
  C   4.54868529480154     -1.44983471774079     -0.14206728242861
  O   4.20897780344113     -2.63437386159751     -0.20638720867508
  H   3.99812939542355      4.11656924483567      0.43065331501646
  H   6.53301418766841      3.20428146041666      0.05519378372312
  H   9.98995999923539     -3.07041469567031      0.65974732307256
  H   6.46795232572974     -3.07917359051867      0.25362931936376
