21
Coordinates from ORCA-job 12160optt
  Br  1.14019933406332     -0.20409354988173      0.64798777312652
  C   2.77206653477370      0.05069912813996     -0.33899970236139
  C   3.45078861900546      1.25345206500687     -0.25587164175739
  N   4.86132271553660      1.29657864399211     -0.26284985916029
  C   5.30181209542543      2.58256181301010     -0.19592364025667
  C   4.21392747794445      3.42808470757888     -0.13757318529698
  C   2.98159784219171      2.62843343935964     -0.15552666209427
  N   1.73525712206297      2.99396983679286     -0.12958169839916
  C   4.29574122015720      4.84397832647796     -0.09994228493571
  N   3.33392552134321      5.73473755882118     -0.01410162936791
  C   4.02623653958450      6.90449575079819     -0.01231703330237
  N   5.31563046204915      6.80011776413420     -0.08862344993673
  O   5.51193626967981      5.42674220870403     -0.14914039037590
  C   5.66163879107243      0.19007924148561      0.00716877063043
  C   5.22805632599823     -1.06249752864966     -0.11358196384682
  S   3.63213670600967     -1.42273157907861     -0.75687208207960
  H   6.35604446032010      2.80696198508791     -0.19269059806798
  H   1.68821494918741      4.00871765127219     -0.07470302876376
  H   3.55436136632879      7.87324738830842      0.05077763781598
  H   6.65237106051201      0.42553125925152      0.37342517931207
  H   5.86073458675367     -1.89206611061174      0.17193948911794
