24
Coordinates from ORCA-job 12169optt
  Br  0.91060475504881      0.20792067068348     -0.12710655964952
  C   2.80031899991340      0.13612583897606     -0.04948805062380
  C   3.52643248295724      1.33803134920539     -0.04468654401445
  N   3.11222548531322      2.61367761020705     -0.05230861878516
  C   4.24516717654454      3.36508060706128     -0.04203528754159
  C   5.42339362884534      2.57663470465909     -0.03034509197595
  C   4.96086837497733      1.27812435512163     -0.02974546653837
  N   5.60153616789916      0.04253355478872     -0.01920945687878
  C   4.88617616084807     -1.10604741239023     -0.01381311918152
  C   3.51280476734013     -1.11049932408653     -0.02826143518598
  C   2.87457420473364     -2.42727547154691     -0.00168940953375
  O   3.45558115949701     -3.49779039303463      0.00321860179301
  N   4.25313930577209      4.74047939571537     -0.03664215408097
  C   3.14196120466046      5.36438016773920     -0.02575331976119
  N   3.14353892475818      6.76393119819242     -0.01991892858828
  C   2.04963542247650      7.55220874434117      0.00169850135597
  O   2.06517287903004      8.76851680193674      0.00873740138368
  H   6.43773171039878      2.94380305881042     -0.02271356921817
  H   6.60553029506454      0.00328353066261     -0.00536507482525
  H   5.43144732290478     -2.03882740794231      0.00588766869687
  H   1.77291775683758     -2.40711845304202      0.01782091199236
  H   2.16374757386670      4.88820556704882     -0.01852583435455
  H   4.04941363181165      7.21445405901494     -0.02902054168604
  H   1.11308060850072      6.97216724787818      0.01226537720143
