27
Coordinates from ORCA-job 12168optt
  Br  0.89004973481577      0.36101831043159     -0.21060705745268
  C   2.79185864235520      0.34901496681615     -0.05644963143132
  C   3.47066361554339      1.52094209481228     -0.25378075639803
  N   2.98789280684257      2.78341320152638     -0.64804253798767
  C   4.05274179704417      3.74461515787220     -0.33857137733519
  C   5.35395228045714      2.92995343271144     -0.46423738176032
  C   4.86173641757916      1.55007859280260     -0.12456926723035
  N   5.59848008236675      0.45752412930965      0.14063835630334
  C   4.94397081056429     -0.66550929336906      0.33431202959037
  C   3.52143353173841     -0.83582756607126      0.27911008440018
  C   2.95976550729611     -2.11593107790743      0.54597803297277
  O   3.61113756376924     -3.14302870159465      0.84091427552647
  C   3.90537832157945      4.34069270926975      1.04247366775550
  N   4.82544443363176      4.75107070018185      1.80383361293198
  C   4.18269952915942      5.33485961455422      2.98127089471196
  C   2.68258017621481      5.04497754630339      2.78141202220884
  O   2.61617071591172      4.51310314780229      1.45383184311594
  H   2.07945216215855      3.02293339143140     -0.27215841677443
  H   4.01459600558298      4.58134275845613     -1.04171952912082
  H   6.12441526178005      3.30783360724271      0.20599722110877
  H   5.72905249677858      2.98991062282153     -1.49383590689723
  H   5.52243878049712     -1.55240009941467      0.56706904924444
  H   1.86047581655441     -2.17598706619416      0.47949916394533
  H   4.40164358399366      6.40433137662423      3.02404828039062
  H   4.57808347557169      4.87896209362684      3.88900846844770
  H   2.05228432214577      5.93193164284978      2.82833326534454
  H   2.30060212806778      4.29217470710479      3.47124159438927
