24
Coordinates from ORCA-job 12177optt
  Br  1.91962185497777      0.05971827131086     -2.25016223986926
  C   3.35798291209640     -0.00806535388747     -1.01310299805659
  C   3.88289606424508      1.18515843460559     -0.45056549189724
  N   3.56215247689694      2.47408641738881     -0.63054224018878
  C   4.42334154173574      3.15221840668250      0.16447735150236
  C   5.31651469082975      2.30931862400865      0.87481382765616
  C   4.95942309827230      1.03963185979512      0.46757639001853
  N   5.40563419039410     -0.23752475735751      0.79944105950230
  C   4.85336387575189     -1.31277798796471      0.12080434027859
  C   5.32211993978383     -2.65915718797198      0.53589449642855
  O   6.74907894048548     -2.68114933976972      0.59760462054732
  C   7.24430904723989     -3.86776230480491      1.13550515971923
  C   8.74256529352540     -3.75159001524131      1.25803647143914
  O   9.43845904496876     -4.62597153933401      1.69273413523337
  N   3.86430572539660     -1.20076070043790     -0.72594894286101
  C   4.40617155856353      4.57026608337375      0.25610146706420
  N   4.42671877697373      5.71909036863498      0.36160180297830
  H   6.08273394874157      2.61363980146549      1.56968796188992
  H   6.31878598849034     -0.36582812544981      1.20456028078738
  H   4.94967655321779     -3.39551337756784     -0.17998511126341
  H   4.94662646166017     -2.91589078045712      1.54065921554102
  H   7.01071001510204     -4.73690317609583      0.50467160370969
  H   6.82923170185160     -4.06785139596356      2.13392632905463
  H   9.15957629879910     -2.78638222496204      0.91321051078560
