22
Coordinates from ORCA-job 12178optt
  Br  1.20887004881534      0.10578600700966     -0.09662544913719
  C   3.08987075423383      0.17592395313722     -0.01594506384458
  C   3.75931813970940      1.37821346350983      0.02403319079417
  N   3.37858480912928      2.65872215037282      0.03072929297931
  C   4.55142510897928      3.33912684637729      0.07048437566325
  C   5.70814334408054      2.53893654064435      0.09523194984012
  C   5.19486260438209      1.25201776531389      0.06500741434292
  N   5.73360810368102      0.02214025307256      0.09614089947930
  C   7.18285018090645     -0.15275167693604      0.14225748947141
  C   7.83812710478717      0.40167799307495     -1.13674567455976
  O   7.14132201733407      0.62380608687893     -2.15173763790643
  C   9.24145592589571      0.59042570013009     -1.00422585505495
  O   9.89149121791963      0.33423075895755      0.04035221416150
  N   5.01370434069533     -1.07266503834579      0.05532820202460
  N   3.71907555289867     -0.99679951548799     -0.00144447931795
  C   4.56449663036094      4.76809717353534      0.07578537454140
  C   4.61130173970733      5.96671903703199      0.07954879919268
  H   6.73693653262223      2.85522107046068      0.07813039507022
  H   7.36274308281250     -1.21869160171991      0.26593002874487
  H   7.56660586875912      0.37239820795410      1.01793627331087
  H   9.74028802975537      0.97149394470353     -1.91133217774215
  H   4.64691886253459      7.02897088032493      0.07716043794639
