23
Coordinates from ORCA-job 12173optt
  Br  1.07288119965598     -0.00852418840029      0.03034626935950
  C   2.96272973311717     -0.01485205520588      0.02838651188969
  C   3.65334504703501      1.19514718478190      0.02744815331604
  N   5.04478974946366      1.15940342860572      0.02651243229597
  C   5.54435122489957      2.42749807523988      0.02551500729857
  C   4.52128090854233      3.32760380133745      0.02576695620334
  C   3.26576359368534      2.59972270416545      0.02691837460038
  N   2.03370659271454      3.05083650378413      0.02731182125405
  C   5.76564987790874     -0.05504898773638      0.02660332038682
  C   7.17056111808016     -0.03090186690037      0.02616919152582
  C   8.37793915658155     -0.05935196326789      0.02563507348354
  C   5.06004539719969     -1.22941246492653      0.02732277707354
  N   5.66121319788615     -2.44771587364369      0.02758482717119
  N   5.04184278032792     -3.69406779814785      0.02762205594697
  N   3.77139236806661     -3.68273893979721      0.02811468966858
  C   3.05266073825031     -2.53901824182922      0.02851439330530
  C   3.61544044120125     -1.25493561894514      0.02811393329561
  H   6.61276860203817      2.57349104119834      0.02469318405034
  H   4.61494973339611      4.40139000092336      0.02511878396461
  H   2.06901173364474      4.06976411955008      0.02663108278696
  H   9.44011949679123     -0.07482787651420      0.02573275065497
  H   6.66621867474463     -2.50292332020066      0.02692718588001
  H   1.98233863476909     -2.67253766407100      0.02901122458819
