21
Coordinates from ORCA-job 12183optt
  Br  1.36829883438700      0.07652684289307      1.40187523650002
  C   3.12545674399703      0.07977116428713      0.65347531951581
  C   3.68514590123276      1.30283585197317      0.28005461480165
  N   3.24260449567426      2.58397665572578      0.33843887755492
  C   4.25047454375108      3.30178177439901     -0.15897956224017
  C   5.37500744574885      2.53651400800290     -0.55845033404017
  C   4.99688575927912      1.23510559316001     -0.27061954475674
  N   5.59337844097907      0.01114864849263     -0.40288351681258
  C   4.94866966222657     -1.14067775703195     -0.00222469026380
  N   3.71050738255947     -1.07409540076376      0.52442349430169
  C   5.58880863489003     -2.39941266056051     -0.16261478154514
  N   5.09332666463425     -3.52133639608368      0.29870488583855
  C   5.76406408028622     -4.69764583279582      0.27220091129098
  O   5.24368026144276     -5.79260012803866      0.26304738011921
  N   7.21152212835274     -4.66262872448118      0.35122756298206
  C   7.84574965516950     -3.75591168199127     -0.24160331135052
  S   7.12216735350776     -2.38834407582714     -1.09962240242693
  H   4.16617428278518      4.37872365414600     -0.23135637078366
  H   6.29940697113851      2.89218918350928     -0.98434674441508
  H   6.55202215994192     -0.05126716133446     -0.71008366320012
  H   8.93464859801587     -3.75165355768054     -0.24266336106997
