29
Coordinates from ORCA-job 12180optt
  Br  0.67505973650650      0.33055248665376     -1.08543008395001
  C   3.13195210220689     -0.03426944720391     -0.98628041701841
  C   3.98315484042104      1.05145533787368     -1.00122835922871
  N   4.00703311106848      2.14792253960878     -1.80449218038708
  C   5.05336811085461      2.85338618647048     -1.37275502294602
  C   5.74788857750840      2.27518966208886     -0.28878252360906
  C   5.06089648018164      1.09554058123220     -0.03581226017870
  N   5.24671250639150      0.11906337505191      0.90143522803148
  C   4.42465005923484     -0.86915582936033      0.84339716077104
  N   3.40201677549614     -0.99807152994620     -0.07089690280954
  C   2.62542563377689     -2.24394932053481     -0.07362522864955
  C   3.48638553465695     -3.49124942585728     -0.37508717480761
  C   2.94581812732537     -4.58486391716579      0.54773025405446
  C   2.58814058826725     -3.82075038623139      1.82467192502238
  C   1.92676603336484     -2.55316578483728      1.28650969986441
  C   0.44391219892209     -2.75003464742914      1.03936823156319
  O   -0.16042232352129     -3.74853539126885      1.33847648851623
  H   5.30359201115928      3.79126799358584     -1.85514834343606
  H   6.61039778824036      2.66275580892455      0.22989030333955
  H   4.51853448105912     -1.68854118778055      1.54786031797257
  H   1.87673436839028     -2.09196053092786     -0.84805320912597
  H   4.52836888507044     -3.27967079365128     -0.12744706484172
  H   3.45028500526799     -3.75287250628206     -1.43196265111182
  H   3.66301015938129     -5.38966108986032      0.71139312132915
  H   2.03627719798421     -5.02375428427815      0.13109082094016
  H   3.49496021730282     -3.57211291707609      2.38094596375636
  H   1.92030359578217     -4.37724268484620      2.48019717573875
  H   2.01433855421188     -1.68345059145071      1.94370067704947
  H   -0.05156035651213     -1.90182170550179      0.53633405415104
