26
Coordinates from ORCA-job 12189optt
  Br  1.01983926959185      0.07847808727126     -0.12135928728252
  C   2.90068609279195     -0.04073282375491      0.55459037750857
  C   3.59258503240497     -1.19699645862924      0.25285502325565
  N   3.16172661613124     -2.55039990482823      0.29204265187272
  C   4.24579375641964     -3.28761029781289     -0.37201231687529
  C   5.51918612975461     -2.49121703092119     -0.00702130775518
  C   4.95206876077914     -1.08841456016104      0.03380524426884
  N   5.64792579940302      0.04054716917897     -0.06179327583046
  C   4.92089175801877      1.18997317064117      0.02945772502988
  N   5.33083810713028      2.37998788301020     -0.18956278950619
  O   3.58070661119338      1.12931219402213      0.44675443851063
  C   6.66318617771517     -2.73976105045801     -0.94435458052931
  C   6.76024423145336     -2.06613464091756     -2.16512264223759
  N   7.71603020677287     -2.28854206378456     -3.06196015650099
  C   8.64134417647916     -3.20025331114138     -2.76953258723433
  C   8.65512163529126     -3.91442663535313     -1.58247935007341
  C   7.64674940554372     -3.67502371525514     -0.65960274177937
  H   2.26340037184425     -2.67168357091560     -0.16218386262766
  H   4.13922874691881     -3.26589248433432     -1.46523454947514
  H   4.28466385229591     -4.32544980793547     -0.03901465037906
  H   5.83026757076878     -2.77210551929077      1.00852755418310
  H   6.30868916012217      2.30396936073545     -0.45587450204257
  H   6.03050568868998     -1.30046713010576     -2.40433008335240
  H   9.40996209699406     -3.36242447315737     -3.51867141851152
  H   9.43483991491456     -4.63951236716869     -1.38769071024106
  H   7.62151883057680     -4.21022001893380      0.28376779760471
