27
Coordinates from ORCA-job 12195optt
  Br  1.53608919608462      0.41930893802071     -1.84287124174760
  C   3.47058534848683      0.27205585062943     -1.31631719043696
  C   4.09359299530054      1.36258669430983     -0.67677656626809
  N   4.02517106023734      2.69771030708924     -0.95082271005253
  C   4.87143853843790      3.27493279210045     -0.09546630505078
  C   5.51700806482859      2.35061740610100      0.76137867715262
  C   4.99719894630573      1.11970905844604      0.37801361366619
  N   5.20800854830187     -0.17775102489289      0.84622081646098
  C   4.59715549512147     -1.26378718509575      0.29543827473857
  O   4.78943588653721     -2.41166020901206      0.68213023798710
  N   3.75823905273131     -0.97698874023745     -0.75675982036419
  C   5.03920297028657      4.76457771048332     -0.08675410005743
  C   5.28687889957602      5.36850400144641     -1.48342991286631
  C   4.99644803339548      6.85877521313647     -1.31352690163074
  C   3.94198945844639      6.92046285319095     -0.21366646141161
  O   3.35409867226385      7.91716054992117      0.12328849834097
  C   3.79339968495072      5.53616324601618      0.37901353903060
  H   6.23888992816047      2.56583067574071      1.53545079910133
  H   5.83362963712920     -0.37334664090453      1.60858885485232
  H   3.35973651939054     -1.79729208366554     -1.18548283488256
  H   5.88006208508752      5.02292618818066      0.56678104763614
  H   4.57411795242002      4.90671732473187     -2.16908413152036
  H   6.29088264654932      5.15552389507203     -1.84888943151325
  H   4.65093311551721      7.38296353840339     -2.20451181894697
  H   5.87167224094711      7.39775676810297     -0.93489780845250
  H   2.91752913349691      5.06635702345877     -0.08355159565614
  H   3.63260589000905      5.56918584922644      1.45550447189121
