24
Coordinates from ORCA-job 12191optt
  Br  0.92866919798909      0.29166178049731     -0.04501718929791
  C   2.79708825800322      0.20207280743477      0.16305912809819
  C   3.59831009649878      1.34186534618674      0.12156861840808
  N   3.20768325395442      2.64295855158904      0.11126141792313
  C   4.34577346496644      3.35782820352406      0.11706166664322
  C   5.50775127659418      2.54314066275712      0.12929088064317
  C   5.01612280618776      1.24858686117085      0.12972357897445
  N   5.71815817144220      0.03800368778282      0.15231272286486
  C   5.19810162712897     -1.21938671482363      0.07770987626724
  N   5.85991348187826     -2.31654882243763      0.06405776197386
  S   3.43988496896897     -1.41741829890590     -0.02822268021454
  C   4.30881070995393      4.79896761674394      0.10526739173590
  C   3.26765532810862      5.65566463036001      0.05824080433984
  N   3.79667274024742      6.95723633510798      0.07844777498579
  C   5.17078214982438      6.92977670553372      0.13735845831317
  N   6.04954367684527      7.87559780102233      0.17986492156465
  N   5.46260290557443      5.59078451565089      0.14685913641910
  H   6.54300178910870      2.85300119869849      0.12784405276159
  H   6.72381694385912      0.08626492942487      0.20020036389623
  H   6.86219651595127     -2.13593025433620      0.09357050745614
  H   2.21617261832046      5.44417166392766      0.01473870552162
  H   3.26987188513231      7.80816021142939      0.04154341909301
  H   5.59541841947562      8.78241374434180      0.16504877827717
  H   6.40499771398609      5.25312683731949      0.21020990335202
