22
Coordinates from ORCA-job 12194optt
  Br  1.13732291091887      0.07274320831006      0.27641085967622
  C   3.00586730967516     -0.02234468941262      0.19795304621709
  C   3.71241871910026      1.15722836331140     -0.00056097946575
  N   3.23072201932119      2.42872284686891     -0.15277454667376
  C   4.31380994195467      3.18549612169392     -0.25418364284712
  C   5.54013813270079      2.46211260392614     -0.16559086549751
  C   5.13306846723483      1.15759474406794     -0.01428350961396
  N   5.79656217996157     -0.05993677668367      0.19641185735894
  C   7.06289497535063     -0.13683963921545      0.70653726577862
  O   7.81309677591091      0.80578014327178      0.83303646812646
  C   5.05268527805408     -1.22678746323219     -0.07839286380925
  C   5.63793373525847     -2.36314041810291     -0.56229131023804
  N   5.00672598274495     -3.54822533652825     -0.64574507777173
  C   3.78824926793016     -3.59790810025265     -0.14162607303805
  C   3.05689449391898     -2.51461211234219      0.42503798628806
  O   2.00619693931835     -2.59764721619893      1.04357197793560
  N   3.67289107986459     -1.20706781104417      0.19339408011173
  H   4.22207355114157      4.25545092667091     -0.39072020780111
  H   6.54623427034925      2.84135054777664     -0.18651151172181
  H   7.32978395821103     -1.16406937098724      0.99149545483386
  H   6.67070934097506     -2.31640181398303     -0.88316495053892
  H   3.27972067010455     -4.55449875791441     -0.10700345730958
