24
Coordinates from ORCA-job 12198optt
  Br  1.01669919999686      0.37669869566219     -1.38247218109011
  C   2.67545698788837      0.18978509240634     -0.48780279294416
  C   3.47954034434638      1.30133636870464     -0.19384091085221
  N   3.11060757983040      2.59769546587049     -0.19666247558641
  C   4.20710181654995      3.28052182548194      0.21494897613184
  C   5.29832290426293      2.45804566371069      0.49465390298015
  C   4.84628263732777      1.15866578127076      0.22699953660077
  N   5.54361762540502     -0.02200432699436      0.32687547818201
  C   5.02474578151298     -1.13299884791065     -0.01510790375877
  S   3.38876841778719     -1.40142704466299     -0.62882770306653
  C   5.80902123739099     -2.41327319211649      0.15223404955827
  C   5.87286197700410     -2.77350844996157      1.62884297795709
  O   6.62672095661439     -3.97437454343970      1.83471573026023
  C   7.71544803762340     -4.11204002472646      1.04914976140206
  N   8.08731901053805     -3.40502227963355      0.07858575815501
  C   7.24451997551182     -2.29172484639115     -0.34643141695744
  H   4.17270953271967      4.35954262746794      0.29286251840876
  H   6.28346471379079      2.74504867275336      0.82850399596047
  H   5.30618877928123     -3.22740583883077     -0.37870344980758
  H   4.88442748402411     -2.95428509388041      2.04670338883227
  H   6.35251428236114     -1.95597964546736      2.17302114770077
  H   8.29559203981659     -4.97799301875640      1.35791974053150
  H   7.26866643462928     -2.24715213685524     -1.43592015385872
  H   7.66840224378647     -1.35515090370124      0.02075202526073
