22
Coordinates from ORCA-job 12199optt
  Br  1.15121894565320      0.38633527838154      1.20738393750889
  C   2.92281594672497      0.19976978069492      0.57146242719499
  C   3.64388706154136      1.26938711697049      0.18721578654565
  N   3.28575579287550      2.59306089262586      0.17822874041801
  C   4.36261063034798      3.21352982007390     -0.30151058506903
  C   5.45117021061062      2.38441591154400     -0.62681038041540
  C   5.02735393381178      1.08875461196242     -0.32083413886900
  N   5.67682887341202     -0.05767650947568     -0.44580442166483
  C   5.14119487149240     -1.21777273540109     -0.11524987707741
  S   3.48325203749503     -1.43065168573486      0.53942535615664
  C   5.84825262898626     -2.44665709722635     -0.25651432419187
  N   7.09350960971233     -2.46480642715390     -0.73485381762731
  C   7.73319874074837     -3.65242375191634     -0.84844547208391
  N   8.92324078150320     -3.86910814271123     -1.28062143347235
  N   7.01088616219630     -4.79981253727523     -0.44465956390088
  C   5.74842309189590     -4.69120465915797      0.02654499419302
  N   5.12925671798195     -3.57655792936310      0.13986600575365
  H   4.34393821562294      4.29239180125756     -0.41334007704190
  H   6.40945216750133      2.67310358508058     -1.02522346828498
  H   9.32366940434024     -2.97031843863705     -1.53458837631847
  H   7.48374011377306     -5.68414650141185     -0.52311528935005
  H   5.25934406177322     -5.61661238312660      0.31744397759653
