24
Coordinates from ORCA-job 12204optt
  Br  1.32692452339841     -0.35013384862125      1.31225271356511
  C   2.94287329029842     -0.07536054181642      0.36593828951691
  C   3.42732589591310      1.21697336142249      0.09313158762726
  N   2.72030777919684      2.44168029072914      0.02872924257716
  C   3.73017192554796      3.49973395405749      0.13720614659131
  C   5.01619777602602      2.89117315937974     -0.45688447640212
  C   4.77726380204236      1.42675540536747     -0.19983092869073
  N   5.68941587276159      0.49132580726752     -0.29525404610211
  N   5.16905090005418     -0.76840530804670     -0.09659562606611
  C   3.89861584711052     -1.14454443472391      0.34193900032709
  O   3.70975822567234     -2.32085546054964      0.64562280073715
  C   3.93060533882315      3.83036013332799      1.60588783722359
  O   4.72598549996636      4.64417983366301      1.99523035545059
  C   1.54874064483875      2.61203059396251     -0.69224834101844
  N   0.89217019004325      1.73527107076074     -1.34252489355484
  C   1.00309562485640      3.95832761740369     -0.61686761147922
  C   0.56011666965161      5.07075601740352     -0.56200836509675
  H   3.41026617155276      4.40431948697392     -0.37970827469749
  H   5.90030263604329      3.28182160237899      0.04574216213673
  H   5.10391011029910      3.09882103411111     -1.52760857974953
  H   5.84822811505800     -1.51056145941089     -0.08429482620836
  H   3.27115428055300      3.27270773342438      2.29740643605982
  H   1.36928788616755      0.83393909612950     -1.31227742285114
  H   0.15123099412497      6.05068485540559     -0.51498317989589
