23
Coordinates from ORCA-job 12202optt
  Br  1.01380207099560      0.09070765534093      0.53065204207299
  C   2.89322424797569      0.12253119514494      0.29573586601473
  C   3.60167624054047      1.34184104535156      0.17239395589760
  N   3.19742420323750      2.63404113556771      0.18285685342174
  C   4.32177049085494      3.32839404234755     -0.04038322178238
  C   5.47751733181038      2.54989937791478     -0.19733480248402
  C   4.99375215986397      1.24371677461621     -0.04479987255718
  N   5.60495777473803      0.00677928678823     -0.03733498613106
  N   4.90681264152228     -1.17643312107716     -0.02644122041835
  C   3.60127377159722     -1.06417323631374      0.16491368717814
  N   4.21660013333058      4.73506218035803     -0.15280029794772
  C   2.94315931968558      5.41824961409704      0.11295856605195
  C   3.58889471961792      6.77931515052670      0.43992044959866
  S   5.15055132267657      5.91072782075796      0.54050166909130
  O   5.53015712687590      5.65600305616122      1.90276006814089
  O   6.16839098093445      6.40319874651662     -0.34260097652944
  H   6.48279615717402      2.89155288454093     -0.38482213539177
  H   6.54920652683617     -0.09255310195434     -0.36354088535347
  H   3.07378114252890     -2.01024405316433      0.20446426195707
  H   2.42278933985392      4.97154102327685      0.95983473743640
  H   2.29584268397193      5.41416837802097     -0.76176500793805
  H   3.30815189338120      7.23620199872225      1.38322102674385
  H   3.59146771999664      7.49247214645895     -0.37938977707189
