22
Coordinates from ORCA-job 12207optt
  Br  1.18993504063416      0.13915506648816     -0.99890231823248
  C   2.97983558277826      0.25090790112026     -0.45139861852169
  C   3.68744101166273      1.40125024305655     -0.24056390813994
  N   3.38575118692714      2.68805432369197     -0.33314557529555
  C   4.54150699143531      3.35831975945180      0.00293456598245
  C   5.60496457194159      2.44610995253129      0.31850857892889
  C   5.07464971990672      1.19369952668808      0.16896512903580
  N   5.63110884695555     -0.05062383205419      0.33721610164517
  N   4.92202008831209     -1.08152464114916      0.12925868250466
  N   3.64476279796141     -0.93597759213153     -0.25031116197884
  C   4.55945911777179      4.78381559849379      0.00351351857926
  C   3.37416105921131      5.48373729734984     -0.31804451472559
  C   3.21867261568643      6.86997009458562     -0.36932578401018
  C   4.21349066941958      7.77221693454490     -0.11784015356523
  S   5.81288158316405      7.27627945609554      0.30871218083237
  C   5.79447393193726      5.46955639377092      0.33075196355010
  O   6.86627099712478      4.97673802597869      0.62597619604584
  H   6.60530240775078      2.71111331916635      0.60755157961150
  H   3.16925875065069     -1.81151963787275     -0.38801019604948
  H   2.51886453579899      4.86191376164391     -0.54307743527782
  H   2.24011661429197      7.25837770902597     -0.63062870624634
  H   4.06407187867737      8.84143033952395     -0.16814012467290
