23
Coordinates from ORCA-job 12211optt
  Br  1.27253515742767      0.08026005780381     -0.68283884981009
  C   3.11790671990507      0.15920563389212     -0.22345354008880
  C   3.76490237605679      1.41354734009630     -0.11948318154310
  N   3.33984203620226      2.68932773783102     -0.25082181318154
  C   4.42832334583407      3.42214923581879      0.01483604147507
  C   5.58047372253913      2.66524874850613      0.31942945166764
  C   5.12874152129816      1.35090123783714      0.22123481820230
  N   5.70813244578169      0.11221535884058      0.35243265535067
  N   4.98213431498779     -1.07304592346415      0.34173574042665
  N   3.71609291383347     -0.97448593739717      0.01716144937648
  N   4.37989096137045      4.84598447736121     -0.00555894826637
  C   5.23778007105995      5.55350287475621     -0.84435151698048
  N   6.06184807245354      5.09296046492469     -1.68759638668119
  C   3.44816653133072      5.50587698558756      0.81227742610891
  N   2.50439325316312      4.97366072483828      1.46719635755729
  C   3.60471741795209      6.94790131727099      0.93290969312576
  C   3.69527132372590      8.13406252959020      1.07193606729355
  H   6.56303094518301      3.03665104677368      0.56239128514789
  H   6.62115101434988     -0.00355768012290      0.75510746061882
  H   5.15228359039779      6.62878232195773     -0.72354426696721
  H   6.03351391292060      4.07242842059562     -1.70357353042691
  H   2.46079195145550      3.97166458404622      1.26724607238341
  H   3.77307640077127      9.18675844265587      1.19732751521126
