22
Coordinates from ORCA-job 12210optt
  Br  1.39698468605963     -0.28056355268094      1.38685752986288
  C   3.06137426674592     -0.21326981983463      0.50552854685833
  C   3.84428110456179      0.92483413567601      0.57014285221778
  N   3.72438898390864      2.05747675535596      1.27220643371234
  C   4.78709187889627      2.79949686304114      0.87560441669231
  C   5.59629756708329      2.18737446773012     -0.08259379684443
  C   4.98522072772239      0.94627222864599     -0.29844286192527
  N   5.26744956946716     -0.06848152238695     -1.14467324523221
  N   4.54765993996189     -1.10693817244646     -1.15330500655381
  N   3.45419284781509     -1.19791491519017     -0.32776879856231
  C   2.90582996295511     -2.58727850663115     -0.27568051652580
  C   2.84106870190529     -3.19308526527458     -1.67125010067211
  O   1.79844083682746     -3.54421334642977     -2.15414913074362
  C   3.81328537075382     -3.43989004054330      0.59101873341917
  O   4.44650054059597     -4.39837826070627      0.08604443775577
  C   3.92779031621860     -2.95336043127421      1.91763995378539
  C   3.94540940740537     -2.40647661544635      3.00022844667856
  H   4.93605997858671      3.78294460084227      1.30214923474715
  H   6.48416921876705      2.57808443746381     -0.55130946352978
  H   1.89308275047812     -2.50511270060659      0.10958506924729
  H   3.80039043389572     -3.31239850223779     -2.18719014918124
  H   3.95103090938862     -1.94712183706613      3.95835741479360
