25
Coordinates from ORCA-job 12213optt
  Br  1.34113716592681      0.29416986136918      0.63065051116645
  C   3.21453901536278      0.20312227227376      0.30500512728802
  C   3.81505286852996     -1.05432857708759      0.16160340623046
  N   3.18379533151282     -2.28885248763584      0.40815067952667
  C   4.02226153273102     -3.31861354289996     -0.21409525122359
  C   5.43579191829427     -2.73594683850062     -0.10842814881745
  C   5.15796678496631     -1.25092230071986     -0.14508745724293
  N   6.10831102658038     -0.34282626486272     -0.32729120370974
  S   5.65551359618542      1.26639363358822     -0.29737283941795
  C   3.91980792083078      1.41121567762627      0.15493834592108
  N   3.39137789813624      2.58952570143829      0.29170051551984
  C   4.21986456857674      3.72035417017350      0.13962160730726
  C   4.11193133858883      4.55206298030309     -1.10076378781836
  C   3.50521531771777      5.05701206713592      0.19219602213429
  C   4.12473547621301      6.16527481528295      0.85691145078673
  N   4.63613285109805      7.04981951783436      1.38434885882898
  H   2.20523552825935     -2.30711714780202      0.15367643817451
  H   3.76296378912264     -3.45151712599112     -1.27255483366381
  H   3.90653159207181     -4.27440952654166      0.29824103979549
  H   6.09282267957800     -3.06274086793585     -0.91451601921375
  H   5.90431720407456     -3.01196500432402      0.84377942824989
  H   5.19981674760081      3.71526562230052      0.61395464818647
  H   3.40975377612073      4.20628417707955     -1.84517244534082
  H   4.98969429290829      5.06672794865839     -1.46526672349460
  H   2.43242977901252      4.98501123923723      0.30077063082687
