25
Coordinates from ORCA-job 12212optt
  Br  4.41872873700873     -0.75545131364636     -2.04982075325792
  C   3.93624623114219     -0.22884393851925     -0.28485934133497
  C   4.08326962473119      1.08685476407977      0.14096867812557
  N   4.23029301561867      2.20142433937067     -0.59232194846833
  C   4.37082868930261      3.21838254904320      0.30651199316810
  C   4.35771356159474      2.79213065061986      1.62242053640367
  C   4.17282605369042      1.39059569275473      1.55584757069719
  N   4.34321270907425      0.49866429935272      2.55884061975056
  N   4.19866600850486     -0.73724272072310      2.44839353362188
  S   3.65478569438866     -1.43451884532544      0.90986053822580
  C   4.53764381148325      4.61624522706577     -0.20331381753842
  C   3.38974858925522      5.08737167933354     -1.12520374488894
  C   4.06147869922520      6.00732277983551     -2.12949982924801
  C   4.80171189769113      5.36762884444503     -3.23738141031415
  N   5.51873037201983      5.85265373209390     -2.06364058470780
  C   5.79829367729841      4.78881135808821     -1.07551989732769
  H   4.47885864088380      3.38963482736709      2.51262542171613
  H   4.60727705113549      5.29706321862667      0.64866060719241
  H   2.61163226522805      5.60111064409471     -0.56077386688840
  H   2.94203787785494      4.21999588572362     -1.61050773576773
  H   3.69967848814392      7.02311747400665     -2.24187421951035
  H   5.00211514160138      5.90512890529265     -4.15694288822099
  H   4.68492711105925      4.29243344543846     -3.33780384506433
  H   6.65841918374364      5.08121516164288     -0.47311835999453
  H   6.02987686832000      3.84727133993841     -1.57554725636874
