22
Coordinates from ORCA-job 12216optt
  Br  1.03023038483752     -0.87327164154494     -0.45699011277259
  C   2.87722722174919     -0.50833381163247     -0.22952883846777
  C   3.76258869993698     -1.56017447197299     -0.12245173852313
  N   3.48710715190564     -2.87983071719625     -0.15406623359137
  C   4.68046825661925     -3.62550135240406     -0.06685089240383
  C   5.73064394578525     -2.72457838090908      0.06135909746897
  C   5.20571071461837     -1.41725773262868      0.03933718326511
  N   5.86167968780625     -0.27052009002607      0.13520899559627
  S   5.02916438923332      1.15035374870504      0.06871913268320
  C   3.27341803149920      0.85690629884840     -0.15603346720432
  O   2.55942559342620      1.84491582534208     -0.22265301796230
  C   4.74033475719894     -5.04503339082867     -0.05727394218700
  O   5.79940318035796     -5.68765353746124     -0.03831400904093
  C   3.43673543717966     -5.83977474639616     -0.04229872577824
  O   3.14554073639311     -6.37295189744835     -1.35723220527722
  C   2.33779056934394     -5.67037449223565     -2.12951526630371
  O   1.77178289824562     -4.65211045564157     -1.84001865366545
  H   2.60799251650247     -3.24842325566758     -0.49314854786187
  H   6.76401244311676     -2.99816016020566      0.18759747017862
  H   2.57594397194198     -5.27313654168905      0.30779734441442
  H   3.59579638804685     -6.71675908427470      0.57970751657567
  H   2.23500302425548     -6.16333011273228     -3.10435108914251
