30
Coordinates from ORCA-job 12219optt
  Br  1.99298315152481     -0.21014674481837     -2.54305153614854
  C   3.18614609827861     -0.05100240047674     -1.07417386818228
  C   3.93497841857431      1.14460124683695     -0.96596966742238
  N   3.95829254267917      2.25317688162847     -1.74527833601123
  C   4.86154942691435      3.06750522382614     -1.16778748127648
  C   5.44904491005097      2.52503156700804     -0.00663986000808
  C   4.83939647378245      1.28325893901080      0.10965632169058
  O   5.02992815765439      0.31872802426348      1.06401009408876
  C   4.28903702052643     -0.81847367752428      0.91206377760448
  C   3.38910688995756     -1.05499724942897     -0.09837115150936
  C   2.69468380346267     -2.39719250124530     -0.10171213989775
  C   3.03223824473593     -3.31608774040161     -1.30150274586418
  C   2.52368884222551     -4.70955887197479     -0.83969192955305
  C   2.02474726053678     -4.43145761819730      0.58399000171116
  C   3.00537157062422     -3.36109750149691      1.06284335046281
  N   0.74711639827049     -3.70481141695802      0.47292500054172
  C   1.14714698385206     -2.34742510564204     -0.00256957397546
  H   5.07572026421924      4.03728361443576     -1.59925838244873
  H   6.19182205619155      2.96663604729543      0.63876546809072
  H   4.50215938358438     -1.52660861982096      1.69517656254209
  H   4.11209434458521     -3.31391428556902     -1.46005687936954
  H   2.55886478584623     -2.97308429363781     -2.21829733251092
  H   3.32924321865411     -5.44593344409452     -0.83120558133243
  H   1.71306848506034     -5.09314968307803     -1.45866972285290
  H   1.91494928302295     -5.31963781776518      1.20539695064505
  H   4.04734720931398     -3.68594354730912      1.06497864786585
  H   2.73873072372185     -2.95379932950120      2.04031352820432
  H   0.34956776229047     -3.61987598569361      1.40059216970940
  H   0.83803551383701     -1.57163003521313      0.70077397075208
  H   0.69394077602193     -2.13339367445812     -0.96724965554572
