23
Coordinates from ORCA-job 12223optt
  Br  1.56160191740618      0.14575588110328     -0.53300693859519
  C   3.40916252783050      0.06207469244635     -0.25192413580651
  C   4.02261552585525     -1.17361100544076     -0.15638947987216
  N   5.40805275754092     -1.21180154658377      0.07608501980404
  C   5.81843871916586     -2.50555596271313      0.15440923170198
  C   4.75572439172366     -3.34273580103693     -0.02478985237068
  C   3.54587321898280     -2.54755697409153     -0.23125128357937
  O   2.38951684676458     -2.95540987503652     -0.42413713367378
  C   6.11431269909044     -0.03640016192150      0.22099459658843
  C   5.50949048794791      1.16307975209521      0.11188171258506
  C   6.20789990131382      2.41942540321775      0.26159603667993
  N   5.68313658744112      3.59149676827420      0.13021540503782
  C   4.34383085737069      3.63884893693365     -0.17358920560620
  C   3.76210245452811      4.94545882314917     -0.34474005745947
  O   2.59771720084952      5.19127486154740     -0.62442243638340
  C   3.57228374415525      2.49704854878245     -0.31284894102621
  N   4.10058652893338      1.24631376485595     -0.16283223948997
  H   6.86018713631125     -2.72153416863227      0.33838015371677
  H   4.78084952285146     -4.41965572394077     -0.01794154034524
  H   7.17160057055295     -0.11049374676395      0.42924607142625
  H   7.26525340386003      2.34882237848083      0.50349855128146
  H   4.49574872357573      5.76095697816904     -0.19608585025184
  H   2.52401427594849      2.57019817710581     -0.54634768436171
