24
Coordinates from ORCA-job 12225optt
  Br  0.95643257954759      0.40486293765132      0.63682629421788
  C   2.81309573848540      0.24079377192573      0.33579758520825
  C   3.61445355795123      1.39498160277872      0.21647172374443
  N   3.31799399493623      2.70334548882049      0.28471679657734
  C   4.48909931555861      3.34345120458797      0.08841240118966
  C   5.57846790959190      2.46459317161304     -0.11007816259646
  C   5.00212201667807      1.21246811694187     -0.02548190701213
  O   5.58686140721912     -0.00323752984566     -0.13733723692636
  C   4.78379743718477     -1.10549084432528     -0.00996616032393
  C   5.46310633108119     -2.35137060130300     -0.14186087679450
  O   4.93590413144432     -3.46054824246649     -0.05845676112671
  C   3.40780245261967     -0.98892265356229      0.22591130569125
  C   4.52463242658676      4.81476698066878      0.09835542968051
  N   5.55445528530354      5.55408997131696     -0.09536060440240
  N   3.28200541215054      5.36499235602902      0.34776901402688
  C   2.94540235591722      6.69800520282039      0.45049599038953
  N   3.67524906902312      7.72656922861990      0.33815892523622
  H   6.61455777573819      2.70156652474445     -0.28712154218760
  H   6.54683930144536     -2.25042067277383     -0.33390477120830
  H   2.85442715400778     -1.91343318323312      0.30765292199461
  H   6.36282624978691      4.96178438339329     -0.26114085878013
  H   2.55932633203093      4.66695936419023      0.47323157861940
  H   1.88160028859600      6.82071855840601      0.66159262535851
  H   4.63554147711552      7.44247486300147      0.14131628942403
