22
Coordinates from ORCA-job 12226optt
  Br  1.24968705600345     -0.28789650106919      0.12968252528015
  C   3.15583223555414     -0.11629226743737      0.10152142564905
  C   3.73872068978967      1.14996802460805      0.08075854910725
  N   3.24609421329957      2.41624033281834      0.06806251569322
  C   4.33290705795330      3.18826362739523      0.04662211922206
  C   5.56065127649234      2.47002476415648      0.04505443806769
  C   5.15584671679228      1.15326305212696      0.06701201606096
  O   5.88983072467988      0.01049716436737      0.07470521921225
  C   5.19528299556625     -1.16462800090719      0.08954071960582
  N   3.85198844490383     -1.21427402701768      0.10405585813372
  C   5.93391015883425     -2.37466304180794      0.08905271528748
  C   5.23541874595934     -3.57815734523339      0.09503801239850
  N   5.85614826092069     -4.77236301914678      0.09745098691782
  N   7.16305694002537     -4.96310667123482      0.09503359341760
  C   7.88456239579931     -3.86818194917480      0.08825910012577
  C   7.40257332899948     -2.49310649471267      0.08260960751448
  O   8.19772554410787     -1.55985631612154      0.07396770196186
  H   4.23377496351092      4.26649083094013      0.03179361739747
  H   6.56403230025991      2.86141851312026      0.02998708180575
  H   4.15589335744331     -3.60020814131224      0.09820466082957
  H   5.31070249885527     -5.61702071123589      0.10209326959089
  H   8.95836009424952     -4.00541182312133      0.08649426672065
