22
Coordinates from ORCA-job 12237optt
  Br  1.12561876242557     -0.18101003303991      0.15171957058699
  C   2.80839334002416      0.12430339960055     -0.74259778768430
  C   3.59484676888395      1.19084722365634     -0.33920440030499
  N   5.00412006290803      1.07789047213884     -0.29371660269436
  C   5.53804404225726      2.26579798570787      0.18411066260083
  C   4.54973082175149      3.16489763929780      0.38456398602071
  C   3.25830765994339      2.53686608352590      0.08100393551989
  O   2.13021469907561      3.05546951881160      0.14226320724821
  N   5.67759254951061     -0.08047494448900     -0.06898748504706
  C   5.15199422368274     -1.18168996152002     -0.43320100929753
  S   3.63184685697663     -1.31291419158548     -1.32067100908148
  C   5.89927512787034     -2.43591719094166     -0.14425702802685
  N   7.27637274919521     -2.34197325595121      0.29272125071571
  C   6.26474945143703     -2.72692241179093      1.27697684665344
  C   6.31738855871748     -4.07663677101410      1.78056484404704
  C   6.34048861070636     -5.19884767427555      2.20101305468297
  H   6.60530028325682      2.32718375043019      0.32377318166626
  H   4.66796110477085      4.19077866342503      0.69451069250073
  H   5.67085974240814     -3.28052694041224     -0.78311669635383
  H   7.48435392634986     -1.35211866663921      0.41600191695299
  H   5.94625767085555     -1.97254944902757      1.98692216599470
  H   6.35828298699280     -6.19545324590724      2.56960670329994
