23
Coordinates from ORCA-job 12236optt
  Br  1.48138569150079     -0.40030085291826      0.68387885829740
  C   2.98111477012745      0.04042575944303     -0.50819886967231
  C   3.72327711108836      1.18661172460650     -0.25220166708485
  N   5.12202617103241      1.08165523001809     -0.28738899073780
  C   5.67760694187220      2.29474582755597      0.04046880645909
  C   4.69429556099943      3.21986379620407      0.18988212013801
  C   3.38895650432498      2.56830786481175      0.02418201976759
  O   2.26216314969437      3.08942347338859      0.08235107829315
  N   5.74055268310841     -0.11455285923438      0.01880497904980
  C   5.00078253405994     -1.13088114162888     -0.20131829576479
  N   5.45764220898661     -2.39626282008828      0.09892951532617
  C   6.83971047937816     -2.52315597314628      0.41593335316331
  C   7.15271771305068     -1.98016697935532      1.80879258439882
  O   8.26329123316538     -1.99073727074853      2.25911376434807
  C   7.30530535324496     -3.95667335191955      0.33376237653480
  O   6.64930387937640     -4.84347624691176     -0.13521117073672
  O   3.76994679991998     -1.12530364488511     -0.73512282513947
  H   6.75030981485958      2.37115055772805      0.12469781087228
  H   4.82971597761992      4.27496117739831      0.36532042888137
  H   5.02839976364108     -3.16135064415586     -0.40168680357616
  H   7.49310249011034     -1.94849686588021     -0.26308465800223
  H   6.27556504268763     -1.61600527290942      2.36862646971249
  H   8.31682812615059     -4.12478148737247      0.74046911547197
