26
Coordinates from ORCA-job 12233optt
  Br  4.13233330967810     -1.92736583987270     -3.07426076636297
  C   3.71174789556609     -0.75708674894913     -1.64520757078546
  C   3.83922028867747      0.63140446871195     -1.80175673709501
  N   4.26259464668416      1.40677852583346     -2.82205390028822
  C   4.14686061135856      2.66654708464862     -2.35914732702239
  C   3.65014043730784      2.74855777810801     -1.04035906191914
  C   3.45438657021116      1.42175463399388     -0.68779032886087
  O   2.98280290226528      0.91132088812899      0.47683805104506
  N   2.87927617147546     -0.47256990687652      0.60972205591347
  C   3.23345502715715     -1.22319852778296     -0.42362160855393
  C   3.02731388839816     -2.69348212573527     -0.13353899104537
  N   4.26048321016057     -3.46797322224834     -0.07386203043927
  C   4.29368120387180     -4.71107659094438     -0.81120986763360
  C   3.40074241933252     -5.74496913415175     -0.25856387119370
  C   2.65762481735477     -6.56027700547216      0.21035877275121
  C   5.07587608422683     -3.35251524770711      1.03140431975139
  N   5.02790542853779     -2.51623963448813      1.98011456549556
  H   4.42583305248014      3.50362683512939     -2.98629178232502
  H   3.46867170080812      3.63011976353140     -0.44777645372037
  H   2.40797166493995     -3.13045930591099     -0.91776809518027
  H   2.48687938394734     -2.77150581613134      0.81435417723769
  H   5.31743095644787     -5.08886268806386     -0.81847060935119
  H   4.01961784962698     -4.51167078892988     -1.84872998041009
  H   1.99387992285331     -7.27668729084451      0.63034291344785
  H   5.87297397501153     -4.09957200985704      1.03313446505908
  H   4.26729658162096     -1.84159809411961      1.87913966148556
