22
Coordinates from ORCA-job 12241optt
  Br  1.00581827612398     -0.07812281540709     -0.29845855817988
  C   2.88591063613980     -0.16294850500475     -0.06439793866031
  C   3.65773833088767      1.01193680898251     -0.24442323616893
  N   3.19022097446558      2.24438484311268     -0.59033188138146
  C   4.25633743789317      3.03805878312928     -0.63844447505006
  C   5.46127058047116      2.36366771782157     -0.32794332984407
  C   5.06024404805005      1.03234773382766     -0.07349616365362
  S   6.03464834992327     -0.34094554604999      0.36612210515406
  C   4.80887442730736     -1.56334107313525      0.49247025113382
  C   3.46457371286690     -1.37895277306361      0.28636260471108
  C   6.77869691196960      2.91392472929127     -0.27448617976900
  C   7.22531069500465      4.19785231208573     -0.49026614547666
  O   8.59842000865933      4.20941697594596     -0.31081307773495
  C   8.89266892532508      2.94611323023680      0.00037584970685
  N   7.89880004417199      2.13800007145548      0.04169170204388
  C   6.58955775346983      5.40096543831764     -0.83046906884252
  C   6.01393763086597      6.41681688305684     -1.12108170325423
  H   4.16169002670538      4.08473693190811     -0.89304410364066
  H   5.19854932341119     -2.53529031011253      0.75988283463280
  H   2.81789042419575     -2.24058168337974      0.40339573233640
  H   9.93089469614386      2.72232762407745      0.18899211458407
  H   5.48994678594835      7.30563262290396     -1.37463733264658
