24
Coordinates from ORCA-job 12243optt
  Br  1.28690309470944     -0.10900150010556      0.16955136141189
  C   3.18697061177244     -0.09157515113305      0.10903518763671
  C   3.82249296913150      1.17469444276571      0.11273134102130
  N   3.22961410153425      2.38056816203672      0.11842792030338
  C   4.23932958689511      3.28187552346930      0.11208291438962
  C   5.51095491867167      2.67052183405567      0.10359679909000
  C   5.24527382677268      1.30984307412359      0.10312989794471
  S   6.36669569456725     -0.01460068261388      0.10172055855108
  C   5.27800187834022     -1.35568636260909      0.05082165108555
  C   3.90268705521718     -1.29562444416869      0.06314129108341
  C   3.17367830474271     -2.60679101940280      0.00532925230798
  O   2.57725239280668     -2.76493080479024     -1.28619091153793
  C   1.36875044999918     -3.44438556003578     -1.27500058357045
  C   1.51841650629245     -4.88526239355049     -0.95207353826758
  N   1.63305983217667     -5.99789507972836     -0.70160437413743
  C   4.00077827134144      4.68361334003155      0.10682059858619
  C   3.82701221021973      5.87613565697994      0.09949111423134
  H   6.46877642680142      3.16615873703671      0.09647898491190
  H   5.77758818354238     -2.31277753921015     -0.00463490301538
  H   2.38846132285715     -2.63841138332615      0.76731698938025
  H   3.86230195189628     -3.43715513075961      0.18061085140028
  H   0.93418001596643     -3.36754307758548     -2.27184925283093
  H   0.66565570519362     -3.00598292386157     -0.55682671555976
  H   3.66316468855205      6.92521228238173      0.08989356558387
