22
Coordinates from ORCA-job 12242optt
  Br  1.01094666951097      0.03906481688988     -0.04803253254809
  C   2.90796821334492     -0.14204279120757      0.00626562924779
  C   3.66820900058159      1.04723776902573     -0.12018461643169
  N   3.19780205114398      2.30356729802947     -0.29230643111841
  C   4.28814356264055      3.08793692313234     -0.36579052390800
  C   5.48956997250540      2.37417836371354     -0.24487324009871
  C   5.09061467488559      1.04628036563757     -0.08532776819705
  S   6.07026278041270     -0.36725700508955      0.13387965003118
  C   4.86078355058812     -1.59857709895865      0.22993472899533
  C   3.50100517607971     -1.40062364582468      0.16881164519816
  C   2.61197352405590     -2.63273027844928      0.21984867651072
  O   3.31129168409004     -3.79807942683531      0.65644625228816
  C   3.29551718073585     -4.75348551447144     -0.30339635383748
  O   3.83227219135252     -5.81624953480007     -0.16666010000177
  C   2.52299101294130     -4.22910845281559     -1.45045629743813
  C   2.10775268846749     -3.00768461595554     -1.14472151367679
  H   4.18475509328443      4.15625892797819     -0.50531567895074
  H   6.49700286360914      2.76023786720880     -0.26877482288692
  H   5.26102738813062     -2.58940463702937      0.38017476165264
  H   1.78433294743949     -2.46460856657702      0.91244758249497
  H   2.37696108175477     -4.79682457662394     -2.35470030893307
  H   1.52881669244489     -2.31808618697751     -1.74026873839209
