24
Coordinates from ORCA-job 12259optt
  Br  1.10002251729545     -0.06901131512203      0.04999469411836
  C   2.97223935497830      0.08692862654141     -0.06724124385738
  C   3.60234514562764      1.27719427987413     -0.05729948239817
  N   5.00010669142363      1.30626563943991     -0.03697474383102
  C   5.67874628441998      2.40740432234871     -0.71301781904516
  C   5.32317195696343      3.73184753475755     -0.04274070408086
  C   3.84164845522750      3.73804430045729      0.04913944477764
  C   3.03035493854655      2.62865613886755     -0.00539034856112
  N   1.73215690077873      3.04970195179733      0.03748062890089
  N   1.70639473703664      4.33263377748577      0.12074490412174
  N   2.97813028511539      4.76276308771716      0.12989827968148
  C   5.69695760270844      0.10465334462016      0.19725029733434
  C   7.05339424358335      0.16561485494837      0.62506612081774
  O   7.70689959310784      1.20329857152894      0.90521421992692
  N   5.09542974404469     -1.07685132405610      0.09242112789553
  C   3.75844658210888     -1.17038204817273     -0.15357943282282
  N   3.14536630532813     -2.27369297697400     -0.41945133925977
  H   5.36579727582282      2.44117368170569     -1.76506675524739
  H   6.74547411824480      2.22879029705378     -0.64899301643862
  H   5.69391179552252      4.57514968887912     -0.63029127217457
  H   5.78495081633700      3.76575694452170      0.94707938427021
  H   3.16673734777788      5.74930170939370      0.18143839260756
  H   7.50626165106717     -0.83210591388183      0.71646111352561
  H   3.85205565693319     -3.00813517373163     -0.42714245026117
