25
Coordinates from ORCA-job 12251optt
  Br  0.78344323252093     -1.06991488599977      0.19010735626525
  C   2.09737026199395     -2.42048542437699      0.18933714387475
  C   3.45009890969736     -2.11027977856368      0.05120014476871
  N   3.95926535295480     -0.85999634665251     -0.18307818562779
  C   5.27635670802767     -1.01701410414852     -0.24938651873652
  C   5.69311641406675     -2.35547729318036     -0.07544934891243
  C   4.49656359564328     -3.06765374934022      0.12597858587956
  S   4.34686133993963     -4.71258344741000      0.70690496222082
  C   2.66581066502818     -5.18695152693766      0.43144263647716
  O   2.35589737887115     -6.34619202750822      0.54750644533702
  S   1.41238461856523     -4.01373148317011      0.00130706139979
  C   7.07848168230755     -2.81740183801835     -0.13294612994818
  N   8.04942276293306     -2.01328386531961      0.12438597095127
  C   9.38435565450034     -2.55694786859480     -0.02701378181663
  C   9.47219231035088     -4.00862653379145      0.43592293622825
  C   8.51027688299377     -4.83571580586753     -0.40216475989683
  N   7.24876528383160     -4.13477231253185     -0.50381398967041
  H   5.94129376812517     -0.18784044164426     -0.44660891458249
  H   10.07620537141536     -1.93325620191050      0.54288403454894
  H   9.70259380594919     -2.49975549485774     -1.07889952518322
  H   9.18178216629309     -4.05725204924707      1.48808614380362
  H   10.48531161927606     -4.40443696020810      0.34174642227492
  H   8.34577750465284     -5.81863639898132      0.04798017828655
  H   8.94233181366834     -4.99893314565331     -1.39688509221666
  H   6.42504089639358     -4.66086101608594     -0.73754377572545
