25
Coordinates from ORCA-job 12258optt
  Br  1.22998982623156      0.18202186958000      0.85296281599748
  C   3.08239132560758     -0.02516549808929      0.34217161590378
  C   3.65242324833801     -1.29204218397749      0.08721283013260
  N   5.05923187491188     -1.25963404735654     -0.07578082251687
  C   5.76667212296645     -2.48476763372222     -0.42504643465073
  C   5.22965202245602     -3.65177145072794      0.38310438777028
  C   3.75928720220310     -3.75039273392650      0.14209485425919
  C   3.02738301258982     -2.56861400425851      0.00524167278291
  N   1.68251294271246     -2.73207261101192     -0.22533596240897
  C   1.00322797551639     -3.96073086758663     -0.25406086286646
  N   -0.27309536581883     -4.02794804910270     -0.40448577886536
  N   1.76310517765677     -5.10042589908241     -0.13346860223111
  C   3.05524765422389     -4.95032215467361      0.04886397452717
  C   5.80848722675445     -0.07890414596049     -0.09325058367707
  O   7.02143965464299     -0.10653125581289     -0.30709831642880
  C   5.05120447710412      1.10899843895515      0.14782077198672
  N   3.74076888726723      1.09530738874779      0.37179767096956
  H   6.82072917790012     -2.29369513392721     -0.24751841406785
  H   5.62423882291203     -2.68633909760970     -1.49309915426647
  H   5.45851092533535     -3.48416555191133      1.44186410048673
  H   5.73145026196139     -4.57393587503791      0.08174385038069
  H   1.11269874321803     -1.91175067417262     -0.34321216381187
  H   -0.67421995293489     -3.09514507323576     -0.46797962848284
  H   3.62635411507907     -5.87531774349083      0.13979953410289
  H   5.57630864116495      2.05334398739158      0.15865864497438
