23
Coordinates from ORCA-job 12252optt
  Br  2.70783238052379      0.35175919104658      2.94620105721360
  C   3.57390691207685      0.10942777896319      1.26024584008068
  C   3.96536537585615      1.26083966471971      0.54110311275319
  N   3.82417875404144      2.54611709837912      0.86846116529039
  C   4.36758311417437      3.24968389776946     -0.16111510458605
  C   4.87104506448119      2.39912885687728     -1.17925591560659
  C   4.61359997053880      1.11742391340698     -0.72606053345142
  S   4.91102976679235     -0.45051513229014     -1.36781286411876
  N   4.28713537262308     -1.54024332753916     -0.21149814311529
  N   3.73252858525985     -1.13404123771402      0.89301007363933
  C   4.37375197671891      4.70154447604071     -0.07979864346023
  C   3.84630498037347      5.31761187675743      1.02583253098920
  C   3.82507327024107      6.72806794007264      1.19786745898878
  C   4.35104177343803      7.50046917092647      0.22500410690131
  N   4.87931038733854      6.90718880866973     -0.88884091647438
  C   4.93421671133449      5.53659923569890     -1.15160630391177
  N   5.43407351310072      5.07357326560390     -2.24197263454765
  H   5.34378543411683      2.70907462716589     -2.09299948863029
  H   3.43896084761918      4.66989372734959      1.79087597846506
  H   3.40478810250291      7.17789199740910      2.08490639154696
  H   4.39243560670551      8.57992309999417      0.25339096109405
  H   5.26138239136669      7.49823170173126     -1.60898705536802
  H   5.76066970877573      5.82634936896114     -2.84595107369211
