32
Coordinates from ORCA-job 12268optt
  Br  3.08735627869422     -0.32282343290843     -2.29227508106283
  C   2.76983177781859      0.19343163222413     -0.48985214105259
  C   2.69064635560624      1.56679006964815     -0.13072310585213
  N   2.49749786006109      2.56224462786979     -1.11008063811400
  C   1.29613484341808      2.48781520172484     -1.93989293043496
  C   0.23420606340049      3.55585332032497     -1.65886196906634
  C   -0.21338338405935      3.74449483322274     -0.19902892601870
  C   -0.38701627366109      2.44462739120719      0.62201276141895
  C   0.11714163587685      2.77257014384205      2.03413560492167
  C   1.23917193123636      3.80641829233925      1.83610807562846
  C   0.73046065750386      4.63994371759494      0.64740890031400
  N   2.59827791850870      3.26327023184612      1.63096003121068
  C   2.73891405861496      1.90038957450773      1.21666326570637
  N   2.93146776931755      1.03066246548664      2.21381908225477
  N   3.10768367834939     -0.26634891267397      1.79060290052286
  C   3.03093222579004     -0.78884939484989      0.50637897764117
  O   3.20749926874306     -2.00223630759059      0.35438686343838
  H   2.64322839079172      3.47258622061493     -0.69857040272171
  H   0.86352362504986      1.49531213914514     -1.81148993724813
  H   1.57000031725680      2.55436940548643     -2.99818318602743
  H   -0.63451354799845      3.30078906534792     -2.27550568543292
  H   0.58796812463172      4.52472150132655     -2.02940150089669
  H   -1.18188518179284      4.25017186020303     -0.24457615964522
  H   0.21491867547410      1.63810162404892      0.20666163974391
  H   -1.42418198577560      2.10420841550369      0.62542682381574
  H   0.47085778164046      1.89489084938045      2.57471426335375
  H   -0.68275622634429      3.24205822917599      2.61558456310115
  H   1.31594752048176      4.45018264544661      2.71506231001118
  H   1.56295507401592      5.05019413775514      0.07488286780619
  H   0.16607484028152      5.49292955169196      1.03340985613131
  H   3.09914514144059      3.32462172099610      2.50818597252324
  H   3.19989478562769     -0.94939081993858      2.52303690402987
