25
Coordinates from ORCA-job 12263optt
  Br  1.30114633366436     -0.63861811919624     -1.06488557484366
  C   3.11172309797993     -0.31231587092751     -0.55492641936411
  C   3.55869008515146      0.98032322781571     -0.34412229500206
  N   4.91425066200111      1.09995527355693      0.03039333716639
  C   5.68320793490543      2.30286664077067     -0.26354976137540
  C   4.80274665549525      3.46850515875248     -0.68299337575399
  C   3.66594009689705      3.58710654751201      0.29451827701320
  C   3.09854622099734      4.87934577871866      0.77677490674096
  C   3.90305786751007      4.01639751490638      1.70474278130100
  S   2.46523399657875      2.31597026562189     -0.00298644852781
  O   1.68143446715463      2.16361793266855      1.20449237568938
  O   1.74425503216497      2.67624770563366     -1.20205841110969
  C   5.65925677441033     -0.07439682075750      0.29979583542733
  N   6.88689583150900     -0.04117091563400      0.69699259148919
  N   5.08387781511280     -1.30480244774933      0.07193425349905
  N   3.84744019648769     -1.38819689797422     -0.40813089005765
  H   6.43647994556610      2.07696939765007     -1.02756458879273
  H   6.22028367257463      2.60264337682874      0.64156915095457
  H   4.40298309599952      3.32570807156758     -1.68916568206277
  H   5.39981285811276      4.38368262757280     -0.68559399602769
  H   2.02939531436168      4.91630727053366      0.93868185459691
  H   3.54492529517617      5.78276431494254      0.38338448661509
  H   3.36556314447348      3.48355586612376      2.47633728347948
  H   4.91149942516235      4.32395724982398      1.95002915552966
  H   7.20535418055281      0.90557685123858      0.86033115341533
