28
Coordinates from ORCA-job 12265optt
  Br  9.79795459230348     -5.47205729647386     -0.88174043000685
  C   7.92122592240430     -5.74967480504410     -0.60387956263945
  C   7.03032870201475     -4.65080336651742     -0.78618807734940
  N   7.57726967581764     -3.34414584064941     -0.89370196782494
  C   8.07962470085493     -2.79860360112305      0.36830791298840
  C   7.17495095559203     -3.01101643289835      1.57979988334160
  C   5.87770268749885     -2.23032237329255      1.67470088718184
  C   5.62866722054055     -0.91493263884434      0.99302808843851
  C   4.77620992629222     -3.70506910004892     -1.28799504781475
  C   4.45373379927574     -2.57397424418808     -0.65981346224690
  C   4.71743933670927     -2.08940319935101      0.72273636745429
  C   5.64058813831643     -4.82743135287514     -0.85432040874236
  C   5.01629245712311     -6.05152771151502     -0.68944965569345
  S   5.83143212484464     -7.49240210021356     -0.16624410204145
  C   7.60420577042063     -7.09228529703125     -0.34189420840833
  O   8.34788716524471     -8.05564261607177     -0.20033209553174
  H   6.87439110569515     -2.72467747049197     -1.27193900871482
  H   8.27605689329431     -1.73395736627643      0.21429128472092
  H   9.04045825108527     -3.26779256731342      0.58458932405467
  H   7.75989761312742     -2.74004419643177      2.46529375418361
  H   6.95897191152853     -4.07921220915959      1.66705687979248
  H   5.50719173613201     -2.24986797806887      2.69457033838971
  H   6.30271773604245     -0.66002444253768      0.18460581153983
  H   5.26397110351064     -0.06829075961861      1.56000754658198
  H   4.33615190173141     -3.83581212730342     -2.27619973814089
  H   3.80066653005787     -1.89443936033832     -1.20642986253645
  H   3.77680688113474     -2.01571415732533      1.26315509395677
  H   3.95020516140675     -6.15587538899667     -0.83901554493284
