28
Coordinates from ORCA-job 12269optt
  Br  2.36267728712553     -0.07476757539432     -2.96302166586910
  C   3.26893743889555      0.38643883932817     -1.23121531686993
  C   3.68142316178110      1.68261677051433     -1.03880657233863
  N   2.98121345309184      2.80904399888608     -1.50618268433376
  C   1.51568847633790      2.90114301864891     -1.42048434832596
  C   0.85502408993648      3.63552591154736     -0.22386173732226
  C   0.77873571729827      2.99347023386664      1.16946357844243
  C   -0.03860801046952      1.69101057224826      1.40571365059432
  C   1.31419003843319      0.98701729802462      1.17686851010956
  C   1.99773999143855     -0.24383827112019      1.78702615418564
  C   3.31543613048158     -0.22173684146915      1.01304347488138
  N   3.15713806895427     -0.52296525899677     -0.30552671911250
  C   4.25116389240908      0.73465632400891      1.50535387071264
  O   4.56632797543679      0.98348460611271      2.65792342111893
  S   4.96352915549036      1.80793822897634      0.14264713629159
  N   2.03507411969450      2.26814583497230      1.44038102322710
  H   3.44069576237675      3.66616754340520     -1.23644191517594
  H   1.10917906274115      1.90022262914410     -1.53929014002194
  H   1.18831873832939      3.44662986276813     -2.31174030571150
  H   -0.15914482612443      3.90389956471687     -0.54356876322314
  H   1.39217034418268      4.58249073491655     -0.09637466373296
  H   0.55539883230031      3.78632875201393      1.88748189239462
  H   -0.38925001372141      1.64863624494103      2.43933359881915
  H   -0.85397306854205      1.44326191129459      0.72205979027535
  H   1.35589784340665      0.81274355342334      0.10544002384011
  H   1.42738298842937     -1.15042761452854      1.57586235990328
  H   2.15444113356005     -0.13912183159356      2.86290063753886
  H   2.29819221672604      2.30898495934411      2.42201570970265
