24
Coordinates from ORCA-job 12262optt
  Br  0.96060946327187      0.79988404267607     -0.01534514570735
  C   2.84734388010582      0.36216297845647      0.53915592085717
  C   3.77338248417650      1.38088807851410      0.49560666207314
  N   5.07310023866072      1.19941410132170     -0.04966092087402
  C   5.87914406391866      2.29537981429909      0.07866697763170
  C   5.32059046730241      3.35229979448699      0.69600889261382
  C   5.92385446629593      4.65957690654338      0.99235376494251
  C   6.78466516121796      5.33091931928891     -0.01559315988749
  C   5.40078606948317      5.87302517508063      0.22020574044921
  C   5.27159115866201      7.11462806713610      1.00008563998625
  O   6.14707280961444      7.57890364209867      1.69025314141730
  S   3.62778195923768      3.02795693737307      1.04651990888669
  O   3.33366380606848      3.13050657285524      2.46104201229913
  O   2.80184581648965      3.87572410804788      0.20360451940721
  C   5.41461201641402      0.09303880748617     -0.80270145600077
  N   4.77022799350024     -0.99384114105464     -0.89829185460072
  S   3.39348414252574     -1.22310244781564      0.11039526741405
  H   6.88953690110925      2.23790804623334     -0.30534742202254
  H   6.14609186536881      4.88102632827060      2.03055117893375
  H   6.94827342927788      4.82407526266501     -0.95592289564630
  H   7.59223619022278      5.94858552521528      0.35226524946940
  H   4.61378945754843      5.65515263407046     -0.48727075670247
  H   4.28797682363187      7.61407176728532      0.93985794995670
  H   6.35333933589550      0.20981567946566     -1.34343921489638
