28
Coordinates from ORCA-job 12264optt
  Br  2.97068572346723     -0.13302480901727     -2.49136099216588
  C   3.79705962358799      0.56697048219596     -0.79783150353217
  C   3.09298502001611      1.54974724019907     -0.09640450679452
  N   2.38994168876875      2.56311119903458     -0.82270226524433
  C   1.01752800352374      2.28838050139812     -1.26046603669838
  C   0.06232696448203      3.43421174850873     -0.93311180896987
  C   0.08895935265981      3.88838758508104      0.52347204965783
  C   0.34670352120020      2.79492435357263      1.59456375795989
  C   1.64303109380508      3.52325793758762      2.03091913572974
  C   1.36837504836891      4.63466106829327      0.98853470905000
  N   2.90586311861486      2.80688250300119      2.02394842486095
  C   3.23822455405965      1.64975456864357      1.29315068700595
  N   3.78041611069159      0.72310171947762      2.11623784161685
  C   4.48937787652295     -0.32942922163487      1.73953275775736
  O   4.95684533525563     -1.20421695398626      2.44414410108300
  S   4.89591461053172     -0.52515051736470     -0.05853362506707
  H   2.95192786701962      2.84128383962282     -1.61697785537918
  H   0.68108444220664      1.36723288850041     -0.78285399459742
  H   0.98260569192591      2.08682000051330     -2.33554367879767
  H   -0.94959155624305      3.11693270528879     -1.20931102744532
  H   0.30127142048702      4.29745186630396     -1.56496669065994
  H   -0.81575230244792      4.46362594312509      0.72898087674628
  H   -0.41059146726713      2.72552415563291      2.37546170081041
  H   0.53138145812252      1.79596120854300      1.20488442509617
  H   1.55244118046697      3.92167393630178      3.04180108346645
  H   1.17365482129035      5.60863493583134      1.44307711318564
  H   2.14078227077019      4.72560165644051      0.23238639704666
  H   3.20954852811255      2.61168745890572      2.96696892427858
