33
Coordinates from ORCA-job 12270opt
  Br  1.71856672108423     -0.81719373883064     -1.81131230063063
  C   2.73137699951750      0.05494609588855     -0.42086280458152
  C   2.85180974421466      1.42150216292526     -0.37132760181710
  N   2.51091701605233      2.33306162073203     -1.40288859051792
  C   1.16351247085303      2.61898809290128     -1.90200171861050
  C   0.35316789486145      3.79447721889749     -1.28768217330370
  C   -0.36261329741717      3.54366617232891      0.07124839689708
  C   0.35567983306276      2.45693033948720      0.84422074950652
  C   1.57203580011234      3.26322757760158      1.29656630635239
  C   0.85355061210576      4.43066801410919      1.96096523638583
  N   -0.28838913617337      4.67802393680576      1.03293591952055
  C   2.69440238997362      2.45272002027822      1.89683049331627
  N   3.53348477221122      1.94040554637479      0.77383301785946
  C   4.57687959343003      1.05575498225042      1.31501621659119
  N   5.61388427209495      1.60102827337347      1.86628049335330
  N   4.36408757903039     -0.27510172109358      1.30364602273317
  C   3.39364057180567     -0.75037290854745      0.50971467630920
  H   3.09160064132725      3.15846962537590     -1.33900944351232
  H   0.58071494676080      1.70132688637535     -1.84782059627555
  H   1.26654767030379      2.84060750727450     -2.96853677395336
  H   -0.39680389477445      4.07804886071825     -2.03257269658987
  H   1.01897150469137      4.65933296970078     -1.19650809334628
  H   -1.41181718793027      3.30594657568439     -0.11602576848426
  H   -0.22120213833074      2.15488309944557      1.72415232079807
  H   0.58089935574541      1.56471048734607      0.27038636932988
  H   2.02180282559283      3.71389214086946      0.41602338936347
  H   1.47991051880738      5.31963275845470      2.05434780191517
  H   0.47681133343583      4.17516256659304      2.95654875571360
  H   -0.16569510866407      5.55414249101893      0.54323502675715
  H   2.30757356456274      1.61907663904907      2.49989544381109
  H   3.34516978786199      3.05414008416828      2.53357096714035
  H   5.55008068430866      2.60611242364638      1.72546084059786
  H   3.17144165948200     -1.81021680120328      0.56167011737141
