22
Coordinates from ORCA-job 12278optt
  Br  0.90084694309595      0.06289076159903      0.03693175537955
  C   2.76117611634850      0.20092162715588      0.22918662129159
  C   3.31608493555744      0.93026703264262      1.28458543330225
  N   2.58647857075175      1.57558287310741      2.21993313684379
  C   3.24139279473608      2.23864847976847      3.16783133565329
  C   4.63405516899877      2.33720000297064      3.29788949307927
  C   5.42520830586245      1.68708153033123      2.35624018046569
  C   6.80910936969413      1.51596959797333      2.10280065958328
  C   6.94437392716308      0.71960557381178      0.96054398037814
  C   8.26261443991961      0.37814903512379      0.46796352066598
  O   8.54539013356543     -0.30827017370947     -0.49467255351340
  C   5.63369753134123      0.36988380733775      0.46326598753012
  C   4.73864607154420      0.96923201493150      1.32664318868497
  C   5.12711997006708     -0.42018719311733     -0.64883807042938
  N   5.78265246243259     -1.07475640183151     -1.52163055245275
  C   3.58171714109230     -0.47448218261620     -0.78250568120926
  O   3.07761541461103     -1.06828488987106     -1.71371618816254
  H   2.61390885108591      2.74292729202990      3.89715115934207
  H   5.05446900665164      2.90761314327943      4.11747648249581
  H   7.62929579806249      1.92232893000979      2.67774999390248
  H   9.08065415167164      0.81777508180290      1.07394287836196
  H   6.78349289574663     -0.96809594272989     -1.34377276119295
