26
Coordinates from ORCA-job 12271optt
  Br  2.47642739963599      1.58975496003744     -2.85270371083199
  C   2.84824018685109      0.95823365086239     -1.10630938257147
  C   3.34351816811121      1.78311544967116     -0.15663022135836
  N   3.56919577325690      3.16759276937652     -0.32072382776666
  C   2.67096879834181      4.09185510008033      0.38568315812826
  C   1.26224930468940      4.13647962465623     -0.21075968759753
  C   0.39713276835397      3.02955721702041      0.29437247763657
  C   0.18400866200552      2.41746400501130      1.46716064075959
  C   -0.54701728307761      1.30588978585612      0.73569105374475
  C   0.22129625829072      0.00811154545956      0.44276467732833
  N   -0.26852119888571      2.07831176643302     -0.52239300409041
  O   1.35935319059926      0.14674692275789      1.01943916221471
  C   2.47834620450693     -0.68978243445990      0.64598157683708
  C   3.63381354079877     -0.09175157673577      1.22078961111871
  O   3.77850423736611      1.32303373457589      1.04486494073179
  C   2.69571593135133     -0.52013764008659     -0.83731986011857
  O   2.89393810332068     -1.35533531549610     -1.68801066777057
  H   4.51368718638207      3.34875494386329      0.00313290372659
  H   3.12838151228146      5.07879974145209      0.28926626433148
  H   2.60041118261845      3.85845136323482      1.45572529296831
  H   1.33474429105006      4.06409087904930     -1.29803744173706
  H   0.81143129233900      5.10220433603150      0.03586657750086
  H   0.64916278780184      2.48074266011582      2.43777457871795
  H   -1.60473546741238      1.13850827038018      0.94071574322495
  H   -1.06311799409805      2.37240586511808     -1.07837961351349
  H   4.59986516352115     -0.58009762426503      1.18203875838618
