27
Coordinates from ORCA-job 12272optt
  Br  1.11921422645797     -0.01280617225115     -0.42023304146939
  C   2.98398655266067     -0.09885449374019     -0.20731289801202
  C   3.68482060944862     -1.26786623471667     -0.44349291449186
  N   3.25641052314519     -2.48696110219630     -0.83343161560194
  C   4.38549504096549     -3.23708949964201     -0.89554293006087
  C   5.55081860561349     -2.54069797805576     -0.56159449525771
  C   6.94835493772392     -3.03025832222264     -0.46691736143970
  C   7.41464805681363     -3.44879229096431      0.93421253872980
  C   8.58217784049334     -4.40539271170533      0.64316225640546
  C   8.39654018580209     -4.73244523048457     -0.85702415683925
  O   7.13908617683916     -4.22030673204755     -1.23304894725803
  C   5.10802829703903     -1.24295862305480     -0.26182651670889
  N   5.78042273926107     -0.12239648611728      0.12717917329135
  C   5.09650060401194      0.94211866205229      0.32828587464106
  N   3.69046284739408      1.05121599163725      0.18087652707118
  C   3.13110179902518      2.28553335490096      0.42984379036613
  O   3.78097676366172      3.27534439561831      0.75655795980138
  H   4.33803731384446     -4.27359481231244     -1.20102179711954
  H   7.63619401444095     -2.25644673981333     -0.84295000440541
  H   6.59098669888367     -3.96770840368113      1.42478532585582
  H   7.69039953897033     -2.58679435203456      1.53970404943559
  H   8.53609063198623     -5.30209224983184      1.26044304862401
  H   9.54983013328592     -3.93413691522414      0.81739544799446
  H   8.40676523806655     -5.80061828237346     -1.07537088263926
  H   9.18628281060088     -4.25101271127316     -1.44913781345704
  H   5.55136388556434      1.87111719779858      0.63507135023240
  H   2.04700392799988      2.29790074173530      0.30838803231229
