33
Coordinates from ORCA-job 12281opt
  Br  2.04848274785510     -1.18490287434463     -2.34483337273610
  C   2.62366572507064     -0.06824299372472     -0.92746029251658
  C   2.94201084455174      1.28390500411412     -1.15653760251079
  N   2.51557426004716      1.92844761761819     -2.35797996773163
  C   1.11951515213848      2.37527262075524     -2.23384438620952
  C   0.82427760695529      3.54601647162160     -1.25801275338221
  C   0.42176130628422      3.31442348386742      0.23138433282919
  C   0.24093038771290      1.87569103824587      0.74589896413977
  C   0.58846514185848      1.99040669814030      2.23808925111996
  N   1.65139820016741      2.99078076553278      2.35286944677059
  C   1.36272999771357      3.96727579668821      1.29803471314221
  C   3.03386309881949      2.43686497862785      2.34565096765114
  C   3.40445914866719      1.55296636670762      1.19940050700907
  O   3.03001351834508      0.22293562932056      1.40796690102613
  C   2.70986454318715     -0.64715141958179      0.36810011996106
  N   2.47641772976086     -1.87234202289110      0.67785006004533
  C   3.40048778666525      2.04762647781946     -0.09704912903181
  H   3.10467323748778      2.73630016535855     -2.52674073608184
  H   0.52409344151750      1.49606679793929     -1.97827626414065
  H   0.79914828367669      2.69258810231179     -3.23033510145547
  H   0.01050606842068      4.11018399196646     -1.72270364845067
  H   1.68838452875851      4.21934276109943     -1.28878752433607
  H   -0.54691692360051      3.80786907049211      0.35454057642668
  H   -0.77683349596642      1.51147624886935      0.59117862605833
  H   0.91255980369826      1.17997146357299      0.25149627352756
  H   0.90576010492523      1.04280890488284      2.67244256869850
  H   -0.28841365775243      2.34947236723225      2.79219554095160
  H   0.84910502434727      4.82730513209198      1.74235808116131
  H   2.28782963298623      4.34095365847954      0.86097994951421
  H   3.15697315794880      1.89330224639817      3.28539599377990
  H   3.70166800840383      3.30141587751491      2.37558358656789
  H   2.59406373347668     -1.97241698762724      1.68328049528506
  H   3.58548185587186      3.10338656090058     -0.24713617708216
