25
Coordinates from ORCA-job 12299optt
  Br  1.22039407108133     -0.01364813229141      1.06554649333634
  C   2.98741955663897     -0.10658311317156      0.40697637593414
  C   3.63922995349453     -1.31621280358089      0.14272954974526
  N   5.06798118029145     -1.27597980210350      0.04211760780450
  C   5.82196307631334     -2.50933547178694     -0.12548804306155
  C   5.15761141882007     -3.65680780446354      0.61475367571935
  C   3.75145966990115     -3.78689163272272      0.14217514716019
  C   3.11104584394783     -4.97118442077101     -0.09018664161908
  N   1.81716672227278     -5.06058744976934     -0.46400457671249
  C   1.20860781749524     -3.87455859537434     -0.58212829169996
  N   1.70460167621022     -2.67083268593134     -0.41040187587248
  C   3.01833183766031     -2.58260733299453     -0.04670240139284
  C   5.74966272100315     -0.10098073554383     -0.19584583641345
  N   6.98208175724301      0.03704295425214     -0.54485791626475
  N   5.01056806972413      1.03779537856176     -0.01760269993437
  C   3.66914030041122      1.14428596885769      0.36681969927766
  O   3.22354416177332      2.26120579560517      0.60279692456151
  H   6.81942486045220     -2.34603175373773      0.28269188773103
  H   5.92066950283501     -2.75720914724102     -1.18985036209317
  H   5.17635659760093     -3.43033097843354      1.68655562757391
  H   5.72026267686766     -4.57862862510056      0.45558268698121
  H   3.64576489201966     -5.91016114249474      0.03881380817524
  H   0.15994217208491     -3.91232153108021     -0.86956352937652
  H   7.43731953236624     -0.84655137339328     -0.72148516432925
  H   5.50844993149128      1.90411443470932     -0.14644214523044
