25
Coordinates from ORCA-job 12293opt
  Br  4.24233291641763     -1.40910727022713      3.34828457683078
  C   4.33718839947494      0.00967010993209      1.17347588684002
  C   4.36480510687648      1.25570445052658      0.57289548222809
  N   4.27448949604886      2.51127617175424      1.05613071057610
  C   4.39310414631005      3.30183069783148     -0.02631638559105
  C   4.30966530063560      4.79364251964884      0.13102987765564
  C   2.89075816612004      5.30878790903406      0.08154156888653
  C   1.93634747697186      4.84933487793484      0.99419778231126
  N   0.67615881644490      5.26821931350699      1.02179223288302
  C   0.30002585757109      6.16844860361206      0.11495948007790
  C   1.15704712213548      6.68237863632970     -0.84317452129201
  C   2.47421527127399      6.24335243260150     -0.85288634738987
  C   4.56029443916800      2.60741294336009     -1.23319431493659
  C   4.54446145748469      1.26415251293941     -0.85892439333291
  N   4.67211062476272      0.13522120761752     -1.59898242910090
  N   4.63686320137776     -0.99299254879978     -1.01741554735010
  N   4.47461137365788     -1.00712331753969      0.32652355526636
  H   4.89229213089442      5.28494324049437     -0.65064844068685
  H   4.75116807447998      5.05476778937877      1.09534180066235
  H   2.22494952364302      4.09869923094554      1.72349062349244
  H   -0.73578385663177      6.48934827943584      0.15698601795305
  H   0.80066608149316      7.40697265729180     -1.56371715876625
  H   3.17717915235694      6.62410440854330     -1.58565473027808
  H   4.67701102867896      3.02074901945354     -2.22268845022545
  H   4.46703869235289     -1.94179387560637      0.71895312328650
