23
Coordinates from ORCA-job 12292optt
  Br  2.31251584359120     -4.48195271100035     -2.40088748510423
  C   1.81157177693306     -3.26162851931460     -3.75878708566701
  C   2.10319216479767     -3.57577054729405     -5.10731119163026
  N   1.32428448096443     -2.81856128063598     -6.05965001652672
  C   1.27799450582502     -1.57114336962828     -5.83053597523768
  C   2.04686292480667     -1.06080943157109     -4.67185711774489
  C   3.44917675334767     -0.97549836370578     -4.96156213585245
  C   4.56985662358478     -1.11147094359797     -4.00994402121934
  N   5.58993733458493     -1.72476711281833     -4.51293476744432
  C   5.17980614969225     -2.10634210990658     -5.81617089107596
  C   3.95923139894540     -1.45616142133373     -6.15321511059065
  C   5.45793757005491     -3.36703008765851     -6.25265361231075
  N   4.68024798822902     -4.05332572595589     -7.16173234587503
  C   3.50029007130245     -4.44326054990911     -6.80506733629860
  N   3.02991624005321     -4.37992069547554     -5.53268898768670
  C   1.74619700426283     -1.86696674771697     -3.42510083379187
  N   1.68856811268818     -1.36810599733444     -2.23701556366805
  H   0.71681589025917     -0.92508409377662     -6.50417444330553
  H   4.54480105916128     -0.79856244912039     -2.97354325715652
  H   3.42105002605494     -1.63580336594419     -7.06730764918150
  H   6.27456671094179     -3.90768735535159     -5.78047277163234
  H   2.90030811228082     -4.92995751313174     -7.57802006238845
  H   1.72387125763814     -0.35318960781813     -2.30536733861084
