20
Coordinates from ORCA-job 12304optt
  Br  1.01587660243421     -0.08897816744955      0.62509383776257
  C   2.70606059147209     -0.17504750310387     -0.30978248075710
  C   3.54965356887607     -1.29876542998103     -0.18899346478596
  N   3.23392550016638     -2.61972739393951     -0.09825974989626
  C   4.40696984958670     -3.25020629940252     -0.06172551875183
  C   5.51964557030653     -2.37459638282977     -0.13624970105673
  C   6.88904455506012     -2.75190483270959     -0.12017256110611
  C   8.09161135892018     -2.18962424835663     -0.48652469361530
  N   9.13078654947669     -3.08119540548662     -0.21674576365627
  C   8.54198107014519     -4.10454286172757      0.27061728678270
  O   7.20018376535354     -3.99309342327659      0.36428076567615
  C   8.35414117716941     -0.95835488949530     -1.14052313756165
  N   8.62733938079209      0.00678730026194     -1.70153410227802
  C   4.94140675020392     -1.09061813634759     -0.21096910701104
  N   5.51482275673568      0.16948088464551     -0.18542786905508
  C   4.69404235985821      1.13214950927343     -0.22255815224207
  O   3.34001027696438      1.05675875264797     -0.30783654525165
  H   4.45927528532768     -4.32895582303899      0.00309286171883
  H   8.97907791875426     -5.02942397811868      0.60850179837747
  H   5.01414511239649      2.16585832843499     -0.19428370329267
