21
Coordinates from ORCA-job 12310optt
  Br  4.80655564155005     -0.34737170235906     -2.13112933322101
  C   3.77757265660589     -0.03532086346614     -0.58948126033372
  C   2.65267693199833      0.75721891734074     -0.60183298865984
  N   2.28142744867126      1.24315036391825     -1.82704876814314
  C   1.21240854361623      1.93521085504337     -2.12891286209141
  C   0.19191534019813      2.47462506873139     -1.34458699743030
  C   0.08947507680527      2.47541534886506      0.04282382585481
  C   -0.96295838463403      3.23467300674160      0.71372796010863
  N   -1.96914523571422      3.90576156924996      0.27992263313084
  S   -0.61640294058098      3.10842260802065      2.43532202608575
  N   0.70199375682846      2.11428553854139      2.27553039507899
  C   0.94720891735623      1.86302437351882      1.01652002032678
  C   2.07071659345454      0.91376325259104      0.73780375116710
  N   2.49137706199278      0.26576203004136      1.78539394593757
  C   3.55192405286924     -0.59994287851147      1.74331257173450
  O   3.93847435765595     -1.27941123739596      2.67472506840654
  N   4.22526718867010     -0.66003116331137      0.52816043697692
  H   1.12280265129433      2.13376581767508     -3.19662713716991
  H   -0.57272818309496      3.01385441874969     -1.89342059808764
  H   -2.01137565813039      3.86171017539191     -0.73670886750844
  H   5.03181418258775     -1.26356549937634      0.48550617783701
