27
Coordinates from ORCA-job 12316optt
  Br  2.43249953027811     -1.28117872063836     -2.21134004263012
  C   3.14674544298717     -0.24715289877850     -0.79204508932627
  C   3.12797339283606      1.09160535642698     -0.85469715051349
  N   2.66023719974607      1.88551158321015     -1.91216863634806
  C   1.32796409757831      2.50111912846730     -1.72743217726133
  C   1.29301939308571      3.71094310974801     -0.77983353020026
  C   0.54749448946852      3.42518706539117      0.53235799388830
  C   0.80348420926626      4.50628881374031      1.58834891943660
  O   1.98010496096161      4.02925798060635      2.24590939818946
  C   2.02303444995396      2.68216763440831      1.94270544438100
  N   3.10906551035355      2.01416400132903      2.39696659713291
  C   3.79740952830909      1.18087839324793      1.41666935785246
  O   3.66114948933212      1.81623825813223      0.14482213233363
  N   3.74371245499897     -0.14632328998938      1.52599587212684
  C   3.63912262662346     -0.93473841973968      0.42880944478552
  N   3.84806795327776     -2.21220424838725      0.38870341023937
  N   1.13071417915178      2.23977604354233      1.14531367190306
  H   2.62055275731165      1.30116905325617     -2.73776350334384
  H   0.60924385695120      1.75087594478508     -1.37823059545459
  H   1.02195751540508      2.81646076230689     -2.72567556610253
  H   0.82168955270491      4.56481891001315     -1.27803487113807
  H   2.31963939003602      3.99640468725606     -0.53805642729636
  H   -0.51916967229515      3.28554438276003      0.34056721376810
  H   -0.01198095730106      4.57063629916234      2.31439139735021
  H   1.01585838337697      5.49384309933499      1.17816612325974
  H   3.70986149641027      2.57460637603701      2.97951582889209
  H   4.14654876919155     -2.49189930562870      1.32203478407563
