25
Coordinates from ORCA-job 12315optt
  Br  0.53305239194134     -0.66332588660919     -1.36710792380892
  C   2.93932141123365      0.16189686958293     -1.01857522757563
  C   3.29420412945968      1.47293100961866     -1.01615040915030
  N   2.83260619580648      2.48592754572212     -1.88712761108201
  C   1.41130651928854      2.82756706796428     -1.88502515566408
  C   0.88522636832023      3.74692016390301     -0.74454687568281
  C   1.18790449498620      3.17905845131429      0.60250401902795
  C   0.63846256981104      2.12515996590239      1.24762669631093
  O   1.51933928749852      1.71005609048655      2.20632075018742
  C   2.58561834726179      2.51182602554526      2.05509494371488
  N   3.83323194405390      1.94727749008016      2.44642210928173
  C   4.07948328815224      1.13393808222813      1.25615461992175
  C   3.64447550395027     -0.12964160928750      1.17909311034117
  O   3.31822052861281     -0.66387868948898     -0.01516773759186
  C   4.26256541159470      1.88898714419227     -0.00298641120037
  O   4.99962096184961      2.85957556531636     -0.09525016846267
  N   2.41606123652225      3.45430825487567      1.19073049566683
  H   3.42540751107353      3.29913687728098     -1.76253854124586
  H   0.85155110246729      1.89405631365100     -1.86983824554598
  H   1.18949694488309      3.32818913826063     -2.83173493604751
  H   -0.19064982140923      3.86573220315553     -0.89451238690952
  H   1.34781285126520      4.73392197793007     -0.81640805608952
  H   -0.24709657431150      1.53173328542644      1.11009356506982
  H   4.51673881476146      2.69902673575270      2.46766612348321
  H   3.42803858092684     -0.76938007280378      2.02326325305135
