31
Coordinates from ORCA-job 12317opt
  Br  0.72425603771924      0.12884210438350      0.41296076521514
  C   3.25315535196455     -0.07269392807129      0.75119388826444
  C   3.80853613667282     -1.28684967488151      0.45633320494131
  N   3.06214475081506     -2.48064233792461      0.63716217494723
  C   3.44192660295583     -3.52125265267033     -0.29489433096724
  C   4.91461004406779     -3.82821010412161     -0.08161393366629
  C   5.80514054581627     -2.61617024466368     -0.41048965866714
  C   6.14437024785494     -2.62881377775014     -1.91137244979266
  O   6.92841707388224     -3.76724055860318     -2.24812051286022
  C   8.09941791219776     -3.80841640733006     -1.49122445780089
  O   7.85243354947865     -3.90170769142531     -0.12153087127385
  C   7.14125808617561     -2.75671172551543      0.33209955449547
  C   5.13594757490813     -1.29471137266478     -0.04216514833105
  C   5.81647456261891     -0.10887545602471     -0.21390118964334
  C   5.23960492347726      1.16866867248480      0.09289030908817
  N   5.75125886205074      2.35737706390084     -0.01232327466814
  N   3.93906365103000      1.06326747355217      0.57242642050534
  H   2.07483452720728     -2.24414068611125      0.59630064526018
  H   3.26857410014711     -3.22702713045774     -1.34398023109859
  H   2.84186655815087     -4.41053018393758     -0.09774953186286
  H   5.23441246844922     -4.67791897550399     -0.68569566037573
  H   5.04781238262811     -4.09974496318534      0.96866437983522
  H   6.69385727154917     -1.71967866621509     -2.18101823918671
  H   5.23743739553096     -2.67674967811805     -2.51334153356735
  H   8.69413548769851     -2.90023810763089     -1.69301059867402
  H   8.64933254832269     -4.69943262116476     -1.78643220516010
  H   7.76248673576649     -1.86789416320033      0.17444068339244
  H   6.97524049489698     -2.88192426177981      1.40121547999076
  H   6.82359070022701     -0.09619452917335     -0.60990637417983
  H   6.69949867824097      2.28802421836575     -0.36778870236759
  H   3.47990473749861      1.94259036543786      0.77287139820791
