22
Coordinates from ORCA-job 12324optt
  Br  1.08154792823667     -0.06204145652392     -0.13358118835829
  C   2.68983070061855     -0.56534670754685      0.68401382775321
  C   2.72093713898375     -1.25484738451880      1.87006467524934
  N   1.57336686073103     -1.57538944702824      2.48354932559071
  C   1.34529196276828     -2.29647609226725      3.56661193560584
  C   2.16547252257007     -3.12751071450420      4.32469583625313
  C   3.52593096538096     -3.31917989795241      4.10990047924349
  N   4.26091548487250     -4.29799382666027      4.73182603901881
  C   5.48680704465138     -4.18997981345967      4.24631337969097
  C   5.61992826414139     -3.13988227134918      3.29401213405006
  C   4.36398473320096     -2.57967100540502      3.21724237945528
  N   4.01614353915001     -1.44445391569922      2.44783244164119
  C   5.01959332164865     -0.55785656371656      2.19207238735635
  N   5.12533487893810      0.24035103134341      1.19384243645697
  S   4.16155295074314     -0.08316742894081     -0.10269282396616
  O   3.94205944873454      1.12594542957834     -0.83439376673286
  O   4.75561901062883     -1.19068966013929     -0.80084782103460
  H   0.30066647280504     -2.27088784707138      3.87236893566894
  H   1.70062109819916     -3.71725958290610      5.10533855486722
  H   6.27245407018485     -4.86554187727509      4.55964490488542
  H   6.49870121960973     -2.86854710154182      2.72980129905863
  H   5.79024038320230     -0.54657386641561      2.95838462824625
