25
Coordinates from ORCA-job 12323optt
  Br  1.50905733302084     -0.62306822319801     -0.76437283083234
  C   2.86563749219199      0.02256634292105      0.46060860156230
  C   3.37762465192155      1.29455245295243      0.25927365057818
  N   4.76118531518528      1.51907634972396      0.51067736876200
  C   5.05980945711635      2.84423809510833      0.21038622267069
  C   3.94212896592955      3.47880020035000     -0.20980311340938
  C   3.75625293209360      4.93320303357429     -0.52059428773903
  N   2.88556559262557      5.62740513287005      0.45951374270333
  C   3.74792269991850      6.29818387386539      1.43580107387310
  C   5.03719938267633      6.46737316617640      0.67915308563446
  C   5.03397661105892      5.72075125937736     -0.41466836872876
  C   2.82343927850754      2.53019615171509     -0.21736650132587
  N   1.56515982914097      2.75177500454774     -0.53175653384803
  C   5.69557400455706      0.50413571966603      0.42938842673377
  N   5.49500646223919     -0.73429333466269      0.62160732218087
  S   3.91509413759810     -1.15322262398562      1.18242877658873
  H   6.06128940101683      3.21874623373687      0.36052612085722
  H   3.30673303290154      5.02354825668580     -1.51637099525307
  H   2.26017936921635      4.95921545365313      0.89561568280175
  H   3.92365586559561      5.70499639854999      2.34536404467797
  H   3.31470099796580      7.25326179729450      1.74805591204996
  H   5.84891319461707      7.09460349049085      1.02261475699436
  H   5.84270060607930      5.61854931891183     -1.12562684788454
  H   1.46025227749403      3.71620104531153     -0.84580008663318
  H   6.69694110933199      0.84220540436358      0.16734477698551
