24
Coordinates from ORCA-job 12326optt
  Br  3.90500261729224      0.61771410822475      3.11229398994028
  C   4.82809495168389      0.23881081168472      1.50454564073295
  C   6.18673329161140      0.67320368820325      1.32369168492406
  N   6.73848204546028      0.03850830620680      0.23881635314625
  C   6.01224060362166     -0.24246159132191     -0.87880224494276
  C   6.67223806530589     -0.02033979075831     -2.14256240788267
  C   7.77122312307770      0.83145959610027     -2.13941192265662
  N   8.53238964260182      0.98641894674272     -1.04834446273533
  C   8.81818705827978      2.28655782741153     -0.69749017904066
  C   8.68102670679004      2.71553159845843      0.63613849310251
  C   7.93631762511358      2.29132661683520      1.75598950660152
  N   6.82102868681158      1.54618058512305      2.05073721204566
  N   9.19937001137658      3.16175444574635     -1.69452158051174
  C   8.87693370093006      2.80637553079684     -2.88866920208351
  N   8.09499843709379      1.68842550229694     -3.19147907695624
  N   4.72017926096001     -0.53988194524379     -0.78281696635599
  C   4.19052780252620     -0.36868793598011      0.45571524368201
  H   7.73934716200626      0.34708767094232     -0.05129924384399
  H   6.08788414315762     -0.18001294876154     -3.03757802365670
  H   9.24854579871228      3.61812152068848      0.84485048341001
  H   8.21968600600945      2.86273724323853      2.63643285649628
  H   9.16287825099507      3.41411462639924     -3.73990442083478
  H   7.47928164261724      1.73691506730511     -3.98678381332503
  H   3.15640336596544     -0.67385948033891      0.57645208074450
