22
Coordinates from ORCA-job 12321optt
  Br  1.06587538833501     -0.11540360547858     -0.10613378975535
  C   2.95134800313693     -0.03242621849115     -0.09252072967725
  C   3.64908523992734      1.19702446381599     -0.08471202512823
  N   3.21193689267746      2.48607170680499     -0.08107613738725
  C   4.31596929461711      3.23845858792186     -0.07617399030596
  C   5.51339010484827      2.47860187272036     -0.07634157425313
  C   6.87577601821269      2.94039498174642     -0.07170330818367
  C   7.99873487407660      2.13124142030282     -0.05638941098358
  S   9.42770359827568      3.05030594841088     -0.05454105219061
  C   8.47031774835352      4.47557132811207     -0.07497021702215
  C   9.05624730524220      5.81824436427830     -0.08743414611076
  O   10.23946980399739      6.05594957015272     -0.07745652719320
  N   7.18332604613214      4.27845364939308     -0.08260002158860
  C   5.05455169052676      1.15701805930383     -0.08113419934851
  O   5.80503914498941      0.00884132150314     -0.08432985002078
  C   5.08551172993317     -1.16030383911599     -0.09135279781713
  C   3.72264129861845     -1.20282887160177     -0.09573670120548
  H   4.26162863382534      4.31840784194393     -0.07191003293077
  H   8.00983118311354      1.05413085714596     -0.04666985609968
  H   8.29766496248077      6.61973758922898     -0.10936368607107
  H   5.72083814812445     -2.03133613599702     -0.09332309377191
  H   3.24911289055571     -2.17515489210082     -0.10212685295493
