25
Coordinates from ORCA-job 12330opt
  Br  2.27923984616803     -2.34326061643989     -1.65992444648189
  C   3.62534917953111     -1.35383262349672     -0.78772445390775
  C   4.91513825939347     -1.32932290078359     -1.32156057513816
  N   5.76565506466932     -0.42956059165593     -0.62185550701313
  C   5.60514646610960     -0.35954235656471      0.73401843421538
  C   6.90686602955207     -0.35552129279518      1.53247145191765
  C   7.73171137116117     -1.38658951719646      0.81707816829227
  N   7.57882069747620     -2.63758026079437      0.84904075503787
  C   8.24833055680151     -3.16108653268546     -0.34566345004447
  C   8.61542328872239     -1.91695724135625     -1.16918347610593
  O   8.51556771461023     -0.87263303390015     -0.18288012946203
  O   7.78542358114378     -1.56794003903370     -2.23913790033827
  C   6.63935878496256     -2.32216078673358     -2.64141439210186
  N   5.39349920786242     -2.08656285870427     -2.28992898076592
  N   4.47874684612100     -0.49228241229434      1.30966944474268
  C   3.33603014702836     -0.73821149861066      0.47713478435058
  N   2.14974335192317     -0.51588711340574      0.93037705403425
  H   6.68736853952671     -0.32389604058675     -1.01025545478403
  H   6.67698798127157     -0.64513573330913      2.55294128969394
  H   7.40923148286890      0.61174072035273      1.50874978634035
  H   7.56008052981733     -3.80018654439009     -0.90083261797831
  H   9.13568702606421     -3.73635756428782     -0.07431839894113
  H   9.64241969301392     -1.90334448946577     -1.53136513480354
  H   6.83508552949676     -2.84122816666543     -3.56919502844923
  H   2.24708882470357     -0.17166050519663      1.88375877769071
