22
Coordinates from ORCA-job 12332optt
  Br  0.60227469465404     -0.76725046479809      0.20302906900539
  C   3.11970359713000     -0.04136365453989      0.07962979161067
  C   3.83993690269512     -1.19997574075148      0.07051443256939
  N   3.42204042189532     -2.51646414328578      0.11062800749866
  C   4.49366730409917     -3.31064503741340      0.08366456791758
  C   5.65915614350066     -2.55261869162726      0.02279575514525
  C   6.95768139634650     -3.16446251248306     -0.01992724410043
  N   7.21687786293044     -4.41363399580201      0.03637187324682
  C   8.65412706251410     -4.53335458779355     -0.05577950997972
  C   9.15774700074134     -3.10860878760638     -0.17335712956915
  O   10.26443879284193     -2.68310635272250     -0.27465207341377
  O   8.04668173717658     -2.31876946298313     -0.14263655632078
  C   5.25605108746161     -1.16581851141656      0.01614479886049
  N   5.97276653325015     -0.05011675657404     -0.02411930102294
  C   5.30321154072982      1.12480741210432     -0.01591677469147
  O   5.78764822015697      2.24435316808413     -0.04885061258449
  N   3.85718860816276      1.05924834113590      0.03729903318919
  H   2.44068233392376     -2.76045976672948      0.15460924928659
  H   4.41281402741165     -4.38542393425917      0.10615353921076
  H   8.96752594594518     -5.11238543021790     -0.92799397857366
  H   9.08843267853194     -5.00892844236945      0.82692524983618
  H   3.42034610790062      1.97097735204886      0.03946781287943
