24
Coordinates from ORCA-job 12335optt
  Br  1.04221257951669     -0.09092053166948      0.28917502061359
  C   2.91445008789290      0.06733217618896      0.11557024015876
  C   3.56620196959098      1.25504516912877      0.14937406584309
  N   2.93456107013802      2.50478104133034      0.29385815597603
  C   3.64450903926544      3.60858280296087     -0.34587512119760
  C   5.04747155474821      3.72371626283839      0.24091057593352
  C   5.77999054655086      2.41670635580837      0.09880623127712
  N   7.07312685312470      2.40097996830996      0.01363529919598
  C   7.67849460742437      1.16138508887057     -0.08438271273873
  N   7.01960569618203     -0.02981793384979     -0.09921328627734
  C   5.71796618853001      0.01144567378973     -0.02193264139264
  C   4.97412722853153     -1.27919366125227     -0.04789544564089
  N   5.48683678114891     -2.44089987429079     -0.17352320114511
  N   3.60700819036983     -1.14714095676275      0.07528607051761
  C   4.98670462948853      1.22709553845899      0.07554308678934
  C   9.08996118273589      1.13869751024321     -0.17288260912967
  N   10.24581272220502      1.12511073595580     -0.24652890255160
  H   1.95893730869462      2.46318870976145      0.03364468824540
  H   3.07995369569081      4.52397703232168     -0.16493167449653
  H   3.72238263094306      3.46418294538026     -1.43302639636047
  H   4.96410666778736      3.96900746075640      1.30416666310352
  H   5.61933400925416      4.51394166829292     -0.24599481424979
  H   6.49637952135819     -2.32390544982263     -0.24056763957750
  H   3.08386523882780     -2.00229773274898     -0.02021565289608
