22
Coordinates from ORCA-job 12346optt
  Br  0.83614200867206      0.49585518846600      0.42598406496893
  C   2.69124719940462      0.21766846488744      0.18964986240272
  C   3.56317737912711      1.28461373019686      0.11007974844314
  N   3.05638993517916      2.55771348218455      0.18070738941668
  C   3.87866884050214      3.56892032015614      0.09899599208457
  C   5.26516286031613      3.45199887187409     -0.06200572859088
  C   5.78273306006806      2.17792707497072     -0.13091367559853
  O   7.14632032597520      2.09006715820618     -0.32982044078681
  C   7.73078381932351      0.87906283467184     -0.13510069864742
  C   7.04185051411276     -0.27138682434043     -0.03551707363432
  C   7.84155848087574     -1.42598004614810      0.24886901766625
  C   8.55750220657320     -2.35768190506039      0.50139035225010
  C   5.58194113182388     -0.26883922034341     -0.09662880914926
  C   4.84965919966336     -1.49056682100113     -0.22912016673758
  N   5.23570900703120     -2.68766140190717     -0.50092183456112
  S   3.08544816602220     -1.45737146343252      0.04223223880474
  C   4.98335264967827      1.02720348336047     -0.04051091380162
  H   3.43085437799242      4.55803242407481      0.16072836986033
  H   5.91452027300775      4.31168848068630     -0.13903134693683
  H   8.80533218666681      0.94407943361075     -0.05546293195038
  H   9.17133594675738     -3.19570194868807      0.72377683816259
  H   6.23831043122698     -2.72864131642494     -0.64638025366528
