27
Coordinates from ORCA-job 12348optt
  Br  3.45655054327560     -0.42349426083563     -2.84283948725055
  C   3.48473749931298      0.08421214228117     -1.02662822796473
  C   3.26149236417207      1.35063199528585     -0.66627811174773
  N   2.82856935235996      2.44009038972450     -1.44363573508832
  C   1.33728666577033      2.49373801836017     -1.48555284566638
  C   0.76526746528824      3.83083614667094     -1.01213974448778
  C   0.53898358716975      3.95052305680431      0.49245588708225
  O   -0.57768969998538      3.19294885042962      0.88988268524159
  C   -0.28138960867054      2.78878101673736      2.24177827652543
  C   1.18473862771414      2.50273565494024      2.16179066463015
  O   1.64212582283174      3.48044362038178      1.23583398833002
  N   1.61155208929788      1.24141988027719      2.18379302756142
  C   2.58756112642272      0.74674116324524      1.46164793461661
  O   3.30653322101481      1.64371919454834      0.66008539331001
  C   2.94135917439317     -0.58332121128540      1.26630771512253
  C   3.55319753436419     -0.97637729751312      0.02566327405999
  N   3.99006817527928     -2.15097150760671     -0.30747188001317
  H   3.15011752675517      3.27021853248960     -0.95557463340007
  H   0.91806117122100      1.69548563482706     -0.86621104019620
  H   1.02297232520297      2.30662263463157     -2.51346873434605
  H   -0.20350580949111      4.00491264770437     -1.48773270012539
  H   1.42245200682718      4.64558529342683     -1.33188431958928
  H   0.37095022547674      5.00740534702162      0.75761484076463
  H   -0.86651180162682      1.90671632332671      2.48534863696479
  H   -0.53493640986658      3.61968374565442      2.91310383633096
  H   2.52616131468714     -1.34629140868843      1.90993234338299
  H   3.93429551080326     -2.76099560283967      0.50717895595226
