23
Coordinates from ORCA-job 12340optt
  Br  1.01284525376299      0.19424840392463      0.37609264928481
  C   2.89013060253364      0.12981710280928      0.21967904321154
  C   3.67478569795367      1.30587405312935      0.15443181956946
  N   3.30895739089162      2.62093910667785      0.16526407544528
  C   4.44432930972142      3.30455957160839      0.08063772524207
  C   5.59970388936674      2.47758775809656      0.01299578879240
  C   6.95775028685744      2.90520389984151     -0.08954371229590
  N   7.99495380748013      2.15188916735417     -0.22282409494080
  C   9.20728768446685      2.90487483059563     -0.28033908764089
  S   8.80571440601936      4.60551749561611      0.19001054795305
  O   9.05507738500209      4.85743616553943      1.58579631943321
  O   9.30474605959213      5.56997882500079     -0.75314178537969
  N   7.19022709718526      4.31074492642796     -0.05946418155195
  C   5.06642300410885      1.17483612243530      0.05935908128085
  O   5.72944719820793     -0.01618171249305      0.03288270192625
  C   4.93785245177953     -1.13074879328078      0.08823223285132
  C   3.57900959889410     -1.09049912223380      0.18031467518912
  H   4.42727965967808      4.38740152857062      0.04231497626924
  H   9.62974980794769      2.96218110178416     -1.28662117476471
  H   9.96292647817761      2.54372978928642      0.41968133133770
  H   6.55272330513136      4.86247765917127      0.50071877228269
  H   5.51753499685096     -2.03933084134310      0.05246775126500
  H   3.04554462839045     -2.03053703851874      0.22005454523995
