22
Coordinates from ORCA-job 12345optt
  Br  2.00098962850550     -1.12164524037812      0.74058300791912
  C   3.78320155401102     -0.63586351586968      0.24519859115196
  C   4.90208225263135     -1.19681051924726      0.98024052474284
  N   6.03998783653004     -0.50405619174854      0.78689794487338
  C   6.13713830634833      0.11036503394544     -0.39317255897137
  C   7.56119835420572      0.12395521098371     -0.85454131832726
  C   8.14106589867008     -1.07496778221069     -0.76025659466303
  O   7.37370459042053     -2.18481215359290     -0.47565662661598
  C   7.94479667180272     -2.78007680855368      0.63694197424102
  C   9.43050637495912     -2.71837951218796      0.39475925758479
  C   9.55501418659539     -1.46039014347725     -0.48613401196503
  O   10.56876998269371     -0.90583936574471     -0.81729135938774
  C   7.24584835261584     -3.09665422244145      1.75891670791143
  C   5.89146416649302     -2.93805083651060      2.19401357541141
  N   4.81294366151307     -2.26463305247240      1.74097737556843
  N   5.16230193325734      0.47324670469437     -1.19560925919387
  N   3.90823757527101      0.18147600846469     -0.73665929535874
  H   8.12203724118969      1.00601920396713     -1.12972194908176
  H   9.79433305809680     -3.56504768230470     -0.20000008052803
  H   10.04798415028642     -2.62689335878648      1.28581083822613
  H   7.85202279631583     -3.63573478613889      2.48367054446257
  H   5.66137142758741     -3.56220699039003      3.05403271199973
