24
Coordinates from ORCA-job 12350optt
  Br  1.05160946420954     -0.17186792985020      0.64244972517060
  C   2.86518396874786     -0.02562849279908      0.09038840729424
  C   3.60471257492278     -1.18220180793990     -0.26510615189831
  N   3.07268283227454     -2.49894954428503     -0.33182086508972
  C   3.84462505448365     -3.63308383191457      0.20734749023209
  C   5.31093238396356     -3.29209951833034      0.49517923177107
  C   5.80628399105932     -2.33587399427629     -0.57923986403366
  O   7.13978662287309     -1.87020062341266     -0.38687277546996
  C   7.14766639485490     -0.48059330103196     -0.26716514162615
  N   8.21917437893720      0.18745668630578     -0.11497704287879
  C   5.78804834940708     -0.02112848601498     -0.32558449098807
  S   5.17965692664414      1.57947851192105     -0.08125196994869
  C   3.38721615650400      1.29138162375789      0.19383136728131
  O   2.77424464847263      2.30748764980189      0.47814179027521
  C   4.96363227265790     -1.10873939965759     -0.47814169811358
  C   1.96847490052359     -2.80162668377654     -1.05963176920155
  O   1.51421592346764     -3.92423086589291     -1.17544338588952
  H   3.77595114954551     -4.42943236236258     -0.53462629706402
  H   3.35588990342649     -4.00241850208126      1.11153507114550
  H   5.89134338528523     -4.21617708603084      0.52374788056389
  H   5.41629565938649     -2.79022289964629      1.45865732298267
  H   5.75024189951902     -2.81734638054523     -1.56354039699214
  H   9.01691443619542     -0.44343736600682     -0.08870369878282
  H   1.52721672263836     -1.92654539593150     -1.55217273873962
