26
Coordinates from ORCA-job 12367optt
  Br  0.96805428660731      0.30891236348943     -0.81893212762952
  C   3.28267709868500      0.02189752656854      0.24564427603878
  C   3.76869841752769     -1.25339600191520      0.32443403587375
  N   2.89134145924439     -2.36201645644920      0.41131492670695
  C   3.43597673388787     -3.58585562737932     -0.14093447941461
  C   4.73161151045568     -3.90735339675600      0.59261376975060
  C   5.77364572042410     -2.81912561239321      0.33472544091912
  C   5.17111438170940     -1.43293215131858      0.32487519373680
  C   5.98402775920910     -0.33227363184730      0.26387084595611
  O   7.37075516549238     -0.49387803163353      0.33228686651044
  C   8.06593853756159     -0.24469549321690     -0.78230543947102
  O   7.62210966017587     -0.09557531226263     -1.88016925035283
  C   9.49896112582846     -0.22371156307112     -0.48707262604701
  C   10.67808868840474     -0.20625054489326     -0.28774410363898
  C   5.51474061137722      1.01482974052212      0.17472400927694
  O   6.21026155383590      2.02967117746336      0.11463536888783
  N   4.12581248475192      1.06563221587590      0.16509719822776
  H   1.99406091548206     -2.09647875193691      0.01640024097468
  H   3.64542942349028     -3.50342803437558     -1.22035055011912
  H   2.70685461198604     -4.38493206437653     -0.00004630178118
  H   5.12231634424911     -4.87743034701751      0.27870982370104
  H   4.50741365089518     -3.96450319199127      1.66031347565039
  H   6.24554906173352     -2.97903213851818     -0.64040216321740
  H   6.57824737943943     -2.86323846707878      1.07125401408927
  H   11.72595283927473     -0.18489417863664     -0.10785891411091
  H   3.73436057827079      1.99505797314832      0.07291646948212
