24
Coordinates from ORCA-job 12369optt
  Br  1.26151960304641      0.06429517626538     -0.09941785315511
  C   3.12366386366780     -0.16940739183392     -0.18812622912433
  C   3.73221062475994     -1.40258344404957     -0.08407184254651
  N   3.00824771750900     -2.54254754890492      0.08408536848995
  C   3.66328768047416     -3.67507713441286      0.18528822497417
  C   5.06561404369224     -3.78323805081128      0.13453914231822
  C   5.81725907163672     -2.61255868664107     -0.04335480149142
  C   5.18217048292224     -1.38046774858014     -0.16277556711029
  N   5.90348561628035     -0.24666344658715     -0.33599948487663
  C   5.27218621788894      0.93112698021359     -0.44015370040647
  N   3.86498862625440      0.95826510445339     -0.36243804444944
  N   5.81923598871226      2.09331174671453     -0.60873222695018
  C   7.25184249961976      2.08281993809680     -0.68426452421287
  C   7.76260360531377      3.47307168824618     -0.94954452756003
  O   8.92624663156266      3.77568574774401     -1.02717896493715
  C   5.68307716184651     -5.05647657026478      0.27081097380528
  C   6.20497964227510     -6.13623681893949      0.39036466470453
  H   3.07074221879693     -4.57518237461707      0.31755054929282
  H   6.89772970103433     -2.64396036307952     -0.08921509225669
  H   3.43250963372792      1.86378629352012     -0.44016997921943
  H   7.64126441508182      1.42948248801312     -1.47972871420828
  H   7.73509925010734      1.71690915929536      0.23393233596097
  H   6.96762743816599      4.23453728377606     -1.08068688610315
  H   6.66840826562334     -7.08589202761678      0.49728717906204
