27
Coordinates from ORCA-job 12364optt
  Br  1.10615179337461     -0.23172344617264      0.23502746497697
  C   3.06390381579020     -0.00597991777137      0.46405995478476
  C   3.64413748483030      1.17507248843561      0.02095390372111
  N   2.84184454242038      2.31954722716433     -0.17617294384079
  C   3.44967180826604      3.59785472295968      0.13529402151882
  C   4.75164138877289      3.73106602758299     -0.63615001888202
  C   5.71075667002078      2.62475887702447     -0.21266150016370
  C   5.04082515473190      1.26910497473985     -0.22118728046952
  C   5.84823820361568      0.13397952632573     -0.39296552083897
  N   7.22853675380603      0.13326475324919     -0.10378845920897
  C   7.74563915802165      0.32639177238524      1.15319513958047
  N   7.14051749022481      0.63299194227583      2.22767199700460
  S   5.04000577754976     -1.37749554865348     -0.54642596865900
  O   4.43516756024059     -1.51529628172240     -1.84243362079636
  O   5.86699202507862     -2.44921062902374     -0.04605276447845
  N   3.76843006018702     -1.20617434755389      0.53159894506447
  H   1.93038863919146      2.20152177971138      0.24143992406877
  H   3.66243370829254      3.70459636359251      1.21166291673956
  H   2.74858681512324      4.38620682158422     -0.14655845718005
  H   5.19564415436211      4.71366627149215     -0.45894912780424
  H   4.53061950941415      3.64376920098609     -1.70285555047829
  H   6.09952824563877      2.84534637560473      0.79047771933165
  H   6.57902797662427      2.59622513863110     -0.87381641216175
  H   7.86003449013996     -0.25786135683912     -0.78294747110430
  H   8.83268455947533      0.22527005223972      1.17382657435306
  H   6.13382302406858      0.68974252314729      2.05822829648087
  H   4.04976919073824     -1.51263531139547      1.45752823844129
