24
Coordinates from ORCA-job 12363optt
  Br  0.96441012900171      0.02265263919329      0.29488160673511
  C   2.89495409262006      0.08053929573099      0.20787028525383
  C   3.60219388968578     -1.11192010290983      0.12619216657850
  N   2.96447182323609     -2.34622862985545      0.06441634171192
  C   3.66639233633923     -3.53553108571901      0.00201425794258
  C   5.02612115876436     -3.51364117801802     -0.00212071078739
  C   5.72329292142109     -2.28970225936863      0.05371772917082
  C   5.01049971772081     -1.06660881061214      0.11561296863656
  C   5.68372156032360      0.23315918202003      0.16397445660979
  N   6.97052286407027      0.42909754033234      0.08393120139140
  C   4.77564797543064      1.36127973410610      0.29339881577186
  N   5.34945452022541      2.63329110388347      0.44847795432703
  C   4.71408384154639      3.64063167903805      0.08380858035105
  O   5.28244262247200      4.88676767459169      0.37613569784044
  C   4.81923550933548      5.96868165596665     -0.24064654487826
  O   3.96520131091987      6.01706359024598     -1.07822435544977
  N   3.46062320468277      1.26178493819328      0.29494529516159
  H   1.95916375158392     -2.34713846298574      0.07963503656186
  H   3.07409423226134     -4.43704236745706     -0.03978735643114
  H   5.56175800074046     -4.45256013040262     -0.04899625294446
  H   6.80286378188445     -2.29123156561997      0.05856224265172
  H   7.45310006514698     -0.46023744402399     -0.00346260683818
  H   3.75150251749859      3.69115712998946     -0.41542937911051
  H   5.35324817308859      6.84973587368109      0.13909256974366
