22
Coordinates from ORCA-job 12365optt
  Br  7.96203774659944     -0.16346326681209     -5.03840923660896
  C   7.14656390490968      2.09122449504879     -2.65025658583106
  C   5.74370893967103      1.99447876864035     -2.49697599116778
  N   4.77950108910217      2.17372376259446     -3.41633276237410
  C   3.54894260899533      2.00297592249688     -2.98862071768602
  C   3.20225319052394      1.65865256363589     -1.64638395166112
  C   4.17611896294311      1.48000676538509     -0.70669088050339
  C   5.50635442891235      1.64591753511457     -1.13303546015371
  C   6.75536954704344      1.53250369977014     -0.50217857327076
  N   7.68998821340362      1.80294144631408     -1.47187274872726
  S   8.28232242801677      2.41244148899994     -4.01294253603647
  O   7.83229030051632      3.66774802120632     -4.60254628554756
  O   9.56554776623302      2.42850143607050     -3.29625995790894
  C   7.12132107234534      1.22945258290583      0.84787150586374
  O   6.33973509511626      1.00937792155682      1.75310086028210
  C   2.47592743410007      2.17109781002667     -3.93609613209286
  C   1.54839717982233      2.30019062602703     -4.68478930939080
  H   2.15511893970354      1.54285598645058     -1.40194373742643
  H   3.95046066663759      1.21853785388520      0.31841795701957
  H   8.21417744702000      1.20894543300914      1.03444473682480
  H   0.74578838099646      2.41367750773558     -5.37243369803895
  H   8.70207465738793      1.81021163993816     -1.37806649556397
