28
Coordinates from ORCA-job 12361optt
  Br  0.89466016046655     -0.17609136373970      0.16821275913782
  C   2.79068636241958     -0.03068719535130     -0.08772450699875
  C   3.58383961393905     -1.15717374905749     -0.07243804382474
  N   2.95072092694835     -2.43615110894814     -0.09483750544311
  C   3.73320565510335     -3.58287268318309     -0.50172432068376
  C   5.08161365186356     -3.55309212683790      0.20184856226369
  C   5.82928690398886     -2.28362386995090     -0.17192515780047
  C   4.98449866955833     -1.05092382971511      0.02092725098974
  C   5.65259183583195      0.16296227429077      0.27172313398566
  C   5.09253470130296      1.45248827350665      0.35383525863162
  N   5.64446333242214      2.59507903692799      0.63797421588919
  S   3.35599823004472      1.62257155845911     -0.06984550235197
  C   2.94830827705758     -4.84585028192156     -0.11095948669123
  C   1.58210268601536     -4.96498669137209     -0.77763177103831
  O   1.17081892305859     -4.23438563061142     -1.63043549153826
  C   3.65399826116214     -6.09255755794316     -0.40927553904300
  C   4.19690100510940     -7.12208464838012     -0.69564327460885
  H   2.08202634196885     -2.38578937181107     -0.61040236469391
  H   3.90079933039057     -3.61218217945465     -1.59022838822682
  H   5.65448927673960     -4.44380292375986     -0.06449335909969
  H   4.90192938891421     -3.57102228590799      1.28202871123394
  H   6.16813357315561     -2.36517975148039     -1.21483146393275
  H   6.73520229863434     -2.19827364834517      0.43450189772463
  H   6.72680071368419      0.11665581717904      0.43426850973920
  H   6.63688167690773      2.43986932976475      0.81529123482875
  H   2.76020322060869     -4.79871866033846      0.96922557169906
  H   0.97786404873527     -5.82359813840487     -0.42552410002973
  H   4.69844093396840     -8.02657859361377     -0.94191683011794
