25
Coordinates from ORCA-job 12371optt
  Br  1.18882846905046      0.16512711069734      0.66899227991569
  C   2.95893415489248     -0.03817753175800     -0.27364876594393
  C   3.66684160088378     -1.21749395502240     -0.05736984408502
  N   2.99454712930109     -2.45794551558131      0.11973527491290
  C   3.73334001461341     -3.59771647166633     -0.39017120900227
  C   5.11990740159574     -3.62112910698193      0.24346078138148
  C   5.89425006034835     -2.36661372838300     -0.14777931113855
  C   5.05233997394391     -1.11894480121603     -0.07308084647533
  N   5.71358651202877      0.04616256813535     -0.06387171593687
  C   5.00170477202935      1.19543338289300     -0.07246497592285
  N   5.44046610445014      2.38776869532755      0.08162590364186
  O   3.62534691830783      1.13172930531924     -0.33408621910076
  C   2.94602821213892     -4.83378298878671     -0.09011786198378
  N   3.42884374703633     -5.87435347064655      0.51574148070206
  O   2.36419174230437     -6.76091902295721      0.56944379025891
  C   1.34575694418712     -6.14612755879855     -0.01747234889704
  N   1.61693789281539     -4.96993255335287     -0.45097054603299
  H   2.05265728464130     -2.41560611743869     -0.25186737389664
  H   3.85197797525618     -3.54953381281486     -1.48794130920151
  H   5.65239209170330     -4.52371934726442     -0.06011452159865
  H   4.98593539535975     -3.66411407289346      1.32652250645332
  H   6.28240249580117     -2.46343165356717     -1.16871085265100
  H   6.76353449853271     -2.23267665876235      0.49792943468572
  H   6.44317586786829      2.30747951877193      0.22579686172179
  H   0.41107274090975     -6.68248221325249     -0.07258061180652
