27
Coordinates from ORCA-job 12374optt
  Br  0.72754407421059     -0.23204489012449     -0.06652849096969
  C   2.60019867095006     -0.04989760357152      0.23022697273487
  C   3.43751119599846     -1.14423549592668      0.18497430668553
  N   2.89804728966887     -2.45032708647149      0.07868177175441
  C   3.79136787571078     -3.46301050233797     -0.45028931537291
  C   5.03666368022153     -3.49612226315283      0.41820682852801
  C   5.76023472277986     -2.15933005807692      0.30396319784508
  C   4.83170745179681     -0.97192515370595      0.27363993777046
  N   5.47925441566584      0.21917163558090      0.27599816087060
  C   4.89154033781052      1.40481870827056      0.28817539931321
  S   3.10954913556568      1.59148626853112      0.49979461841315
  N   5.48117471893387      2.56441996919450      0.23042406818505
  C   6.90612199599358      2.43952827110814      0.15853015491893
  C   7.45414447973747      1.90408274919376     -1.17482615510465
  O   6.83758651345999      1.78122149668338     -2.18857484277915
  C   7.60235214959026      3.71468965291902      0.38738601925169
  C   8.22185196251856      4.73106048377091      0.53486090169400
  H   1.99654234716805     -2.44060715252654     -0.37596720142363
  H   4.08536531189928     -3.25673162441475     -1.49172572741034
  H   3.26760231119524     -4.42072895506058     -0.42786392682151
  H   5.69328693304976     -4.31720125732083      0.12142505188746
  H   4.72229187935602     -3.67255458658889      1.44995808311135
  H   6.36494908653768     -2.14030115968514     -0.61132973982205
  H   6.46754206665608     -2.02577215311123      1.12823866446070
  H   7.29409767152006      1.71687100224615      0.89709422731504
  H   8.53619045245654      1.65032343382344     -1.12839554366091
  H   8.74628126954843      5.64411627075395      0.67592257862531
