24
Coordinates from ORCA-job 12373optt
  Br  1.11386853126758      0.02637735227819     -0.38894281029946
  C   2.96490778899877     -0.12838632518866     -0.09714896833664
  C   3.63124284358223     -1.34066095647509     -0.09502677873971
  N   2.99239792130702     -2.51100839272263     -0.32977603294102
  C   3.70507666233236     -3.62627760818215     -0.29682876508697
  C   5.06734701429362     -3.65298960898524     -0.01297220878047
  C   5.74541608849678     -2.45845376909135      0.22304894658372
  C   5.05547488832720     -1.24589745665628      0.17840363103196
  N   5.71240028701253     -0.08730289593138      0.40145596328567
  C   5.05001417245767      1.07789750445384      0.38001269405910
  O   5.52804009549788      2.19503076825948      0.54972681878474
  N   3.64772576698244      1.02946469125250      0.13843231186107
  N   5.76340217756153     -4.89166995520725      0.02957057781242
  C   7.03658182687117     -5.10019790631678     -0.42420796142527
  C   7.36902722127785     -6.41387991992625     -0.20311858436298
  C   6.24961721507096     -7.02851076696192      0.41428662649968
  C   5.28108035471920     -6.06346633716208      0.54414524107534
  H   3.18268995795255     -4.55159213001259     -0.51988875190525
  H   6.79833047330083     -2.44219614536784      0.47166938001381
  H   3.17823217364587      1.91942012815243      0.12033206495707
  H   7.58353076697115     -4.29688894771288     -0.88720130594605
  H   8.30784768221714     -6.87673488890349     -0.45914153028290
  H   6.16605504441725     -8.05226731626073      0.73995794121694
  H   4.30069304543832     -6.09780911733181      0.98721150092520
