25
Coordinates from ORCA-job 12372optt
  Br  1.04566980417199      0.04482173743909     -1.36251680762900
  C   3.05006023681266     -0.05542337631517      0.08375202146919
  C   3.65823560180136     -1.29283252884385      0.13279298012414
  N   2.89002618220109     -2.48557592012462      0.13957602147492
  C   3.59653146322834     -3.64149157644382     -0.37046349503953
  C   4.87156778441414     -3.80573817550257      0.45166448713618
  C   5.79943622084515     -2.60637845655086      0.21463367509603
  C   5.05471237630609     -1.28906958572610      0.18723792251600
  N   5.81976035023785     -0.20666241088867      0.19410267470119
  C   5.24340534206071      1.02073750425991      0.13230824286714
  O   5.82816252419171      2.09577395214714      0.13021744429320
  N   3.83001634780152      1.02250503498541      0.07634129004692
  C   5.59295378428286     -5.07958729350770      0.16319966310454
  N   5.16764726484196     -5.99679816290692     -0.64831425451051
  O   6.10048372299185     -6.98090095526009     -0.64705339499893
  N   7.12701000421422     -6.68122523861090      0.17428073399056
  C   6.84976316227485     -5.52525678167236      0.68037354930761
  H   2.01519030384127     -2.31033741537144     -0.34551028908105
  H   3.87699284075518     -3.54320074675127     -1.43092253443174
  H   2.96288633344730     -4.52289105048250     -0.27334059873017
  H   4.57533308120734     -3.81534126719438      1.50586328008779
  H   6.30921849598461     -2.71947764658065     -0.74731100438006
  H   6.57960301355090     -2.54242069188562      0.97590872163310
  H   3.41020056186715      1.94050504768582      0.01284724404167
  H   7.51813319666768     -5.04473399589777      1.37533242691079
