21
Coordinates from ORCA-job 12378optt
  Br  1.05758933824863     -0.05409291945289     -0.09929456966576
  C   2.93395920822730      0.03232592002400     -0.02659483670876
  C   3.57214740274124      1.27164102933629     -0.01673187174232
  N   5.00118094155467      1.29029028679564     -0.02454084475146
  C   5.57389195434475      2.65089482682898     -0.01955547126423
  C   6.37114997277866      2.92798491615282     -1.22569979177695
  C   7.00375623663716      3.19184888442919     -2.20762114287787
  C   4.31183577376458      3.46340703909136      0.05742724401167
  C   3.21370564712531      2.61712316984295      0.03514975715743
  O   2.07648568716489      3.32818459525401      0.05856936468116
  N   2.43011609238342      4.69861044081371      0.09101613076098
  C   3.75295056782567      4.73392655809949      0.08220233575317
  C   5.78164304846378      0.18509390051450      0.11079035173698
  O   6.99777623927464      0.23548757555914      0.21183726441041
  N   5.07478257779321     -0.99148133935860      0.12039207065329
  C   3.66587972269859     -1.17573853828618      0.03948425227873
  O   3.24297837481450     -2.32678546374492      0.04956880220739
  H   6.23083803910742      2.75230673592271      0.84995097805116
  H   7.56351049161646      3.40768431245431     -3.08465465489261
  H   4.22983609720964      5.70255595527732      0.09608530337263
  H   5.61698658622539     -1.83626788555388      0.20721932860497
