24
Coordinates from ORCA-job 12387optt
  Br  1.10857352343352     -1.57768409339444      1.40221608562880
  C   2.86223159829908     -1.00485783159275      0.86075542251848
  C   2.96542482429060     -0.17484387561079     -0.25536107780075
  N   4.22423013268837      0.47763693849780     -0.41106021805451
  C   5.34348315685618     -0.27641776487393     -0.08695756006373
  C   5.26227117492130     -1.24058514062756      0.83843185631441
  C   6.04204628638237     -2.51663805947325      0.60359690839163
  C   5.05113092922184     -3.31629765840151     -0.20553348050534
  C   4.29149189215559     -4.40636128478942      0.03370362598020
  N   3.14780202584772     -4.38080657340316     -0.75108598905608
  C   3.23310077364346     -3.25685741448309     -1.39036809257024
  O   4.39602411391374     -2.60972326751510     -1.18907219310817
  N   2.29856015243943     -2.70572749449236     -2.22495202533082
  C   1.92214965044894     -1.47982116993236     -2.20675942617711
  N   2.20779975962634     -0.37080537177801     -1.45969419773802
  C   3.98222667253325     -1.42427765444965      1.61578660657218
  O   3.99321710583444     -1.99878588047143      2.71990215144191
  H   4.30822333095617      1.07546537596095     -1.21545855082772
  H   6.21783520718066     -0.15097368154905     -0.72122406049197
  H   6.25456712569240     -3.06269268972788      1.52229959803825
  H   6.97395129952365     -2.32315501205747      0.06612216268413
  H   4.45410233663069     -5.17139075806556      0.77448609320420
  H   1.16877215177412     -1.23257614748468     -2.95735435227905
  H   1.59978477570605      0.39517650971476     -1.70941928677067
