23
Coordinates from ORCA-job 12388optt
  Br  1.33447777138719      0.58072068217109     -0.88456646708519
  C   2.96547924133949      0.19576152676615      0.04257383413058
  C   3.51339197285994     -1.09136234472717      0.06677021435894
  N   2.93604612333533     -2.32305990460956      0.11913467829978
  C   3.96249310400924     -3.17084059982087      0.24861317075853
  C   5.23292934917199     -2.53899631687929      0.29001082277395
  C   6.58505110839406     -3.17716833753144      0.35644043795109
  C   7.00181243700120     -3.81794553552836     -0.93987432652660
  C   6.38277827679970     -3.69951498057387     -2.16012571581396
  N   7.10230733125481     -4.43865506802572     -3.03476383437061
  N   8.15151698339191     -5.04363917439951     -2.47174832198236
  C   8.09704754036451     -4.67015041629968     -1.20229504097215
  C   4.90777436288858     -1.20203288736982      0.15988469706763
  O   5.75158627693419     -0.10507531902896      0.13165680926975
  C   5.22497119451203      1.11275240236129     -0.05558017251631
  O   5.92789851140243      2.07724097343164     -0.14262321939294
  O   3.88876148084773      1.23760913069203     -0.12941859616566
  H   3.79286146544720     -4.23954990701080      0.30489988287432
  H   6.60530723135863     -3.93605346942789      1.14456109608347
  H   7.32530529382453     -2.42346588519849      0.63905986203882
  H   5.49621274670928     -3.15479750780590     -2.44095295789664
  H   6.92299629956713     -4.57539966152866     -4.01293768579154
  H   8.84299389719875     -5.02937739965614     -0.50971916709290
