21
Coordinates from ORCA-job 12380optt
  Br  0.91472810521179     -0.26692717196073      0.14943828839299
  C   2.79220969306724     -0.23415573650255     -0.01568948900711
  C   3.40090796873300      1.04363591087813     -0.01762202343102
  N   3.01575025740046      2.31123479738128     -0.01825007178116
  C   4.17966153892601      3.07154619756108     -0.02285035006567
  C   4.18790249071690      4.47639083874074     -0.02590038251477
  C   4.23572899814032      5.68363350830080     -0.03028268506858
  C   5.32381967411183      2.21511495883068     -0.02249487548374
  C   6.72425953209711      1.97411591595932     -0.01140211822948
  C   6.91786757402468      0.57784113467644     -0.00123283017667
  C   5.65633471054122     -0.04613645331481     -0.00213630098663
  N   4.76392315694712      0.98705568231760     -0.02148066108178
  C   5.01752873924837     -1.30006779595974      0.01512576670445
  Br  6.19264554417545     -2.79790294788704     -0.02861732095260
  C   3.61841181664567     -1.39531694673533     -0.00923322911213
  C   3.03912769971803     -2.76074842294609     -0.04278221606790
  O   1.94754218515918     -3.06006801377928     -0.45658415968645
  H   4.27008194221699      6.74494139297048     -0.03573903656509
  H   7.49835316066126      2.72245455467116     -0.01059810339691
  H   7.86380882763578      0.06083541134293      0.00741268610748
  H   3.70740638462146     -3.54147681454510      0.35291911240276
