24
Coordinates from ORCA-job 12399optt
  Br  1.54200535016247     -1.06378083840098     -0.39125076100500
  C   3.39518821718969     -0.58473118086223     -0.48359471657663
  C   4.34662257154693     -1.56603966375177     -0.42641873230129
  N   4.43661515206958     -2.94548010379722     -0.12571497912723
  C   5.81544465744740     -3.21037690250867      0.44245853686390
  C   6.33941611263462     -4.48526738348462     -0.05806497777824
  C   6.76688386356277     -5.53724845592004     -0.44206729339941
  C   6.59104721046777     -1.95018768808778      0.06386826272308
  N   7.67169004271340     -1.30468412697420      0.52261102821405
  O   7.35124148994361      0.13051757932080      0.20297398396894
  C   6.07040491222758      0.19859864992801     -0.26083554596134
  C   5.65913238817228     -1.10290250290723     -0.47317634359263
  C   5.11377698134542      1.20065468803746     -0.29056039690991
  C   5.45327052122783      2.63414159251278     -0.03875549816425
  C   5.13876896646422      3.18639190912315      1.33114796708950
  O   4.57749111999368      2.62417912778892      2.22693718816751
  C   3.76706879549144      0.78539977537726     -0.50895039755558
  H   3.68051691322046     -3.32125300250550      0.42953136535384
  H   5.77861259650326     -3.27582927305158      1.54132871955722
  H   7.15243154115409     -6.46009595084760     -0.80027546321731
  H   4.94014162250783      3.30434423405071     -0.74398990454533
  H   6.52225645361348      2.81521522065968     -0.19741049959184
  H   5.48120865396571      4.23772395186002      1.46918264522015
  H   2.99376386637431      1.53271034444064     -0.63197418743220
