30
Coordinates from ORCA-job 12403optt
  Br  2.88501476044544     -0.03287084352091     -1.39745370413638
  C   2.97008385785591     -1.02583372645876      0.23553627522083
  C   2.39600926374626     -2.27811758554501      0.32765952627993
  N   1.59506442040989     -2.79173118922406     -0.70647143647141
  C   0.29065638222802     -2.15300569439366     -0.91323368588470
  C   -0.76618792617335     -3.20325903487426     -1.23655399080634
  C   -1.36673954594701     -3.94763806378757     -0.04106862700561
  C   -0.41279408262159     -4.69248749814055      0.88858121017500
  O   0.58994789223166     -5.40547516495060      0.17892283581934
  C   1.76802206445846     -5.46447004696130      0.99709366793161
  C   1.78162686217047     -4.22813518428560      1.89524239308476
  C   0.32069917742344     -3.84298804170138      1.92357009784990
  O   -0.24980560942132     -3.04402305305276      2.66729540648397
  C   2.62857375861547     -3.01913317814510      1.50799818793260
  N   3.41987854426163     -2.54993748849146      2.51174659140173
  C   3.94621527348551     -1.33441437726125      2.37808573961494
  C   3.76497078748434     -0.51500676076986      1.28414647132325
  H   1.46951968022148     -3.78819306637176     -0.61093285067582
  H   0.35987517781713     -1.43843358777569     -1.73725363403469
  H   -0.00196739122777     -1.59309195375800     -0.01655253959356
  H   -0.33720943125490     -3.92149840208659     -1.94219448346321
  H   -1.59118682330378     -2.71348200607711     -1.76093908705843
  H   -2.10880101184283     -4.65486842074816     -0.42382670278504
  H   -1.89894647017686     -3.24235254103163      0.60549904272278
  H   -1.02360087079336     -5.40830192457263      1.46739036633301
  H   2.62915306293791     -5.52311123027029      0.32798044487004
  H   1.72783345132812     -6.37266461048709      1.60878850715422
  H   2.12823409772552     -4.48139788953201      2.89817700055678
  H   4.55083604267662     -0.98321721555597      3.21150931850134
  H   4.19802460523945      0.47313977983109      1.23325765865913
