23
Coordinates from ORCA-job 12406optt
  Br  1.86160944892768      1.18559311982233     -3.30129548596034
  C   2.73652310176861      0.83233776209789     -1.64601014189128
  C   3.26647134074282      1.87192166275875     -0.88763852822599
  N   4.13355069937141      1.65540000514076      0.11448230594894
  C   4.38193810895735      0.38049753948099      0.43027542326999
  C   3.63736223329601     -0.69040125623812     -0.03417231305327
  C   3.81625045952981     -1.98628907949290      0.52423460618641
  C   3.96239472450458     -3.08384018607989      0.99888341270213
  C   2.64080512881518     -0.43892305686666     -1.04791714813303
  S   0.95293094651230     -1.03395541160592     -0.84903208051243
  C   0.36576203560710      0.30412174333051      0.19062833649872
  C   0.02287419207799      1.51447262058442     -0.26960997151855
  C   -0.33498872308048      2.65003564277192      0.61744008863478
  N   -1.27472141396906      2.66080744412988      1.46722531965601
  S   0.57197692486147      4.21967872987038      0.43858217788104
  C   2.18735476571594      3.53417722576185      0.18632963798919
  N   2.47172157924194      3.02061070053819     -0.95085407460727
  H   5.16505255858302      0.20326922177969      1.16116870267937
  H   4.07692424583757     -4.05198401313612      1.42013039742316
  H   0.42147193195983      0.12992257836892      1.26203756960925
  H   0.04193681221874      1.72999235651486     -1.33157680163835
  H   -1.77721134239638      1.77270143557150      1.41895233021120
  H   2.74501024091652      3.30085321489675      1.09173623685034
