26
Coordinates from ORCA-job 12409optt
  Br  1.04320314058035      0.00613739621527     -0.27447868023653
  C   2.91647230771714      0.12282630055184     -0.05865170574361
  C   3.57315660385468      1.29981018582618      0.18434989855364
  N   2.82469866417374      2.45996770543565      0.48097017062995
  C   3.18086624845874      3.56725887492562     -0.03560852210036
  C   4.31083062544619      3.74597744053252     -1.02274033459138
  C   5.69298474773758      3.64807031522119     -0.36020006497691
  C   5.70846287075738      2.51930851044566      0.68048980431002
  C   4.98792250190145      1.28969621366782      0.20779314472386
  C   5.62579797510837      0.07320464162870     -0.14342826641705
  Br  7.51579006544654      0.00553820681481     -0.36505860755993
  C   4.95126530045337     -1.11792887054320     -0.46068826477535
  O   5.37747465758787     -2.19367342290285     -0.82750489196191
  O   3.53599009197676     -1.05667164621995     -0.30306257224170
  N   2.50347866165380      4.73987324916135      0.28615176802487
  C   1.41836455235282      4.90536140017365      1.13767745252864
  N   0.76289894934390      4.04278470456907      1.78216962237238
  H   4.20024278098074      4.68913866978573     -1.56333936181458
  H   4.21846650588701      2.93270460142691     -1.74491415465728
  H   5.95658730774753      4.59665427668576      0.11891825073034
  H   6.43532793546336      3.45381540413924     -1.13849474356587
  H   5.21562138051684      2.89289119009705      1.58546552843947
  H   6.73591752627181      2.27868774492961      0.94763450521056
  H   2.84887060583387      5.57663434755485     -0.14987661055964
  H   1.14250510536644      5.95934662722501      1.21489086507807
  H   1.13380288738167      3.10758593265245      1.60253577060028
