23
Coordinates from ORCA-job 12411optt
  Br  0.82109367718395      0.29443571723239      0.34007482480343
  C   2.70510347728846      0.15613650648406      0.17383870062091
  C   3.27485643380883     -1.07646573804214      0.08877026149368
  N   2.68641841380060     -2.33271929014320      0.25204162615551
  C   2.82066906412114     -3.11465058384978     -0.75149400894094
  C   3.62956761699303     -4.30078268275685     -0.51098591061823
  C   4.86878030641207     -3.87131202564268     -0.09330604524169
  C   5.35150954239692     -2.52902731569674      0.05588163403572
  C   4.72692362356224     -1.25325717495813      0.00853397826113
  C   5.51249119065271     -0.06440347054119     -0.02466182002983
  C   6.93868173254700     -0.14544017781260     -0.11310667544436
  N   8.08600557662104     -0.20145124460030     -0.18307605416031
  C   4.91754723297387      1.19145436634428      0.02770740439802
  C   5.41350479189180      2.52691028874939      0.01456845102249
  N   4.42342882737062      3.40394619664902      0.10704688389569
  C   3.25126475602990      2.69707334794469      0.17980818793057
  C   3.48604583187287      1.33323427684577      0.13673859406620
  H   2.76825653008627     -2.73479416898817     -1.78423234814433
  H   3.44784684292501     -5.31094233025593     -0.85159298034218
  H   5.64486533940873     -4.62635123391343      0.00335870546301
  H   6.42872696708311     -2.48073421789172      0.16915405381346
  H   6.44865868557374      2.83116514774063     -0.05530238483135
  H   2.29875353939604      3.19897580710265      0.25923492179343
