22
Coordinates from ORCA-job 12412optt
  Br  1.28664147148696      0.26198245165340      0.46803934005555
  C   3.02607327561748      0.06908946494126     -0.33596760031839
  C   3.75875684348602     -1.12887209466186     -0.18267830100835
  N   3.27961996087693     -2.39469087969697     -0.13930986426228
  C   4.36447578705268     -3.17158433892457     -0.05468885045343
  C   5.57576744542274     -2.44451833062380     -0.04149437611703
  C   6.88587465253522     -2.96893657679536      0.05416887445839
  C   8.00044452538990     -3.41872445089098      0.13821648049700
  C   5.17156123389002     -1.09830988893935     -0.12332703735686
  C   5.82999495752868      0.17987675935568     -0.08742540527099
  C   7.24543097155585      0.33868602395374      0.03493943868430
  N   8.37464874443810      0.52906811175943      0.14087181209062
  C   5.06893805405536      1.30052340454777     -0.12972152674066
  C   5.57126817891195      2.69984252286247     -0.04588361922297
  C   5.61271270258427      3.44787744241255     -1.35995079654109
  O   5.37712965698687      2.98742601560000     -2.43769605256958
  O   3.72944347235630      1.26341442565314     -0.24402002843940
  H   4.28063608505903     -4.24877102082159     -0.00222065862273
  H   8.99110280569728     -3.79411789071163      0.21062409056287
  H   6.58432412372399      2.72651847092252      0.36493203121777
  H   4.93737584159544      3.28045923786214      0.63294232528562
  H   5.90477920974873      4.51376114054201     -1.25535027592835
