27
Coordinates from ORCA-job 12419optt
  Br  0.94212308489085     -0.45152617405297      0.71929491922592
  C   2.72276934457308     -0.32090739350804      0.07275775948167
  C   3.61857800136588     -1.39387065017420      0.15517248927401
  N   3.30969646166724     -2.71090486116492      0.33630446044793
  C   4.47508132181679     -3.35883216489936      0.27535661780797
  C   5.57976807792364     -2.50489987700256      0.05274423474288
  C   6.93904169455337     -2.86786353891676     -0.06408001729847
  C   8.09983962931113     -3.18307986545223     -0.16526836074975
  C   5.01991284756107     -1.21452616392443     -0.01867624989319
  N   5.68632917120833     -0.02157498111902     -0.20433844217737
  C   5.05661406481108      1.08771193621479     -0.18989789532216
  S   3.30624376926650      1.33107594744660      0.04093924212118
  N   5.73679823319231      2.26766750625580     -0.37301386969580
  C   5.17576064027771      3.59148309258807     -0.18491396941565
  C   6.32126275554921      4.50066681886201     -0.61932883213406
  C   7.55573322591447      3.73151853911830     -0.14422789678185
  C   7.19387801531456      2.26797289175715     -0.41071173305395
  H   4.52590004987933     -4.43356357263044      0.39277802355739
  H   9.12199068722841     -3.45538193346872     -0.25598880513196
  H   4.90392725579467      3.77478904053107      0.86390525127528
  H   4.27769035507822      3.72787565409393     -0.78967931248584
  H   6.24247327179836      5.50235028035539     -0.19777974719183
  H   6.32691020953834      4.58295924803866     -1.70831607362806
  H   7.69218315455344      3.88807224706286      0.92804711457749
  H   8.47289359045913      4.03452780171279     -0.64809153327058
  H   7.59495192440559      1.57885038178592      0.33366898520584
  H   7.54764916206711      1.92240979049028     -1.38665635948705
