26
Coordinates from ORCA-job 12415optt
  Br  0.88560948096155     -0.48042211847397      0.08559220423170
  C   2.77217734048468     -0.26697505297465      0.30944548734282
  C   3.61148049171974     -1.35187897336314     -0.03144597426566
  N   3.12328094294928     -2.64615522977289     -0.32614458647949
  C   4.21878600891992     -3.35282617980403     -0.97393457222655
  C   5.46753607510394     -2.76289187709832     -0.28720316129234
  C   6.64801868928080     -2.90005046326781     -1.13730968316348
  C   7.59940105431697     -3.04391845598599     -1.85385552115586
  C   4.99958211181829     -1.34534796497490      0.03057229828267
  C   5.77502370698383     -0.29614729184170      0.49852934608980
  S   5.01717597302679      1.25782251892590      0.83310512600441
  C   3.19392989523226      1.00292933981912      0.70235289677100
  O   2.54000456932396      2.00298191247103      0.96824853122222
  C   7.24236000533004     -0.37192701489596      0.64998618886709
  C   8.17593065754239      0.67175130933327      0.07494227523391
  C   8.01945784798761      0.54091233040884      1.56139962844604
  H   2.25166199460130     -2.64212987759978     -0.83990481031537
  H   4.27874568097057     -3.12385363187784     -2.04512404496990
  H   4.14092258492721     -4.43206564214486     -0.84039703243316
  H   5.65895678629542     -3.30485538040680      0.64943479645344
  H   8.44764222620015     -3.14322006937611     -2.48594679446212
  H   7.62822740191571     -1.38125439464106      0.59554365200461
  H   7.71023726842182      1.52516675092996     -0.39902793003948
  H   9.09505978892149      0.32970191369080     -0.38243205761171
  H   7.46787829339276      1.31590310344294      2.07562406410039
  H   8.83491312337135      0.10875043947799      2.12594967336504
