29
Coordinates from ORCA-job 12418optt
  Br  1.03143812980083     -0.09116085767181      0.13809631101404
  C   2.96350812195513     -0.01344942580306      0.03616676744216
  C   3.67767312653510     -1.17884301310106      0.27784266901322
  N   3.12398726504914     -2.44090272078316      0.58396336170402
  C   3.28380935798342     -3.46732773746771     -0.44758000130490
  C   4.62825751107343     -4.17727349332488     -0.35677721819227
  C   5.84286391675950     -3.27939549882676     -0.57644060658382
  C   5.99004190142875     -2.15562562295854      0.45776312340327
  C   5.07154111355195     -0.98992578136913      0.21044057615965
  N   5.62702236605984      0.16512154120316     -0.08125292134707
  C   4.81450772522964      1.23220889495784     -0.30223412764149
  N   5.41824657833669      2.38237826575700     -0.59579827962688
  C   4.92705680011579      3.68219464841346     -0.90611161881584
  N   3.66949732248049      4.03231207391060     -1.02795679758840
  C   6.02622291309670      4.57442415642723     -1.08616885123791
  O   7.24073004723058      4.23868979673924     -0.97445388148120
  N   3.46545185783525      1.15325421592352     -0.22743290800275
  H   2.14969306616204     -2.33475485862698      0.82870394613864
  H   3.15901619463033     -3.03685946889718     -1.45114458716260
  H   2.48951065708411     -4.20279724687163     -0.30380765535045
  H   4.64160932309195     -4.98541143581369     -1.09382561671066
  H   4.70212522115533     -4.63835990033535      0.63299836086782
  H   5.80592057815411     -2.83870958873588     -1.57747997659600
  H   6.74107004821115     -3.90070447882582     -0.54171536339691
  H   7.00543446748199     -1.76369192506441      0.44688078454770
  H   5.78302908630201     -2.56104463217490      1.45356386395147
  H   6.43603752844326      2.37370855975072     -0.59767746850851
  H   3.06266401276951      3.23975403623531     -0.85395883256821
  H   5.73603376199191      5.60319149733391     -1.33960305212612
