19
Coordinates from ORCA-job 12422optt
  Br  2.49691071343462      1.23729473901598     -1.51954395853169
  C   3.96314292568633      0.41949039720199     -0.64536625927131
  C   5.12959902317263      1.14204898302085     -0.42881588629884
  N   6.17377169191660      0.53326055592531      0.28321562111737
  C   7.18922809831033      1.43825426889588      0.50461123032483
  C   6.83838972532746      2.65176146472795     -0.00264873941724
  C   7.58797043736547      3.84921518412857      0.07628724504664
  C   8.20295376780577      4.88109468032896      0.12878465582355
  C   5.51263995881602      2.53209182103493     -0.64894373484698
  O   4.87486738180421      3.42263182838605     -1.21393728972038
  S   6.41178016398515     -1.12757784664256      0.29072407449307
  O   6.96580945778542     -1.49975606454166     -0.98328591182879
  O   7.20490661980116     -1.43731424921259      1.45199045109442
  C   4.78742862093306     -1.61226612634055      0.44851220380428
  C   3.79143555979869     -0.87530645882118     -0.15604155738114
  H   8.08339937685722      1.12062909564282      1.01519831527176
  H   8.74254264385462      5.79502155286872      0.17164845062828
  H   4.64525775027163     -2.58794704925627      0.88529252279027
  H   2.80096608307352     -1.30962677636320     -0.21668143309808
