30
Coordinates from ORCA-job 12423optt
  Br  0.89487307240503     -0.11968211916997     -2.08770516891978
  C   2.72348273711249      0.05121790559057     -1.47885160984458
  C   3.30575216722493     -0.97484851701665     -0.79156163280737
  N   2.62801078101390     -2.19861683477155     -0.51299764691166
  C   2.23499120421531     -2.39361764197921      0.87622434386145
  C   2.86749324844455     -3.63170157602389      1.53104991385510
  C   2.35303682136571     -3.75138929021790      2.89603026344494
  C   1.94609722661256     -3.83070281733103      4.02210398173634
  C   4.42807293369991     -3.63273610805841      1.54661866196912
  C   5.07474082843205     -4.23655327965004      0.27479967333627
  C   5.65960595173906     -3.05046157772701     -0.50698835990007
  C   5.45422828475479     -1.77448681561880      0.37000323928165
  N   4.97684144555078     -2.29369232427004      1.69593234636079
  C   4.61221498662484     -0.72198874251105     -0.26738106128356
  N   5.15240363943521      0.54849403619397     -0.38491176982029
  C   4.47452185092155      1.41432972561890     -1.08177607392497
  N   3.28774276722022      1.25588355176828     -1.72226854624401
  H   3.10916688669071     -2.99946305072952     -0.89450208526870
  H   1.14703625861563     -2.49025869444485      0.95515139676661
  H   2.53723248835106     -1.52039783088325      1.45582652842535
  H   2.53710185559402     -4.52230535401165      0.98281866979764
  H   1.58385081630347     -3.88828809620027      5.01937790293277
  H   4.71132290013610     -4.23257612282864      2.41258569702522
  H   4.36178366359706     -4.81956501528090     -0.31276343595383
  H   5.86570017673398     -4.92617085522212      0.57577868558694
  H   5.18192880007067     -2.91741329121311     -1.47732601593940
  H   6.72184345110735     -3.20363319339941     -0.70091787494982
  H   6.41257188818635     -1.28595090237982      0.54908107127844
  H   5.74713165784665     -2.30697750388301      2.34951941459873
  H   4.91221920999395      2.40655233565041     -1.18095050848936
