27
Coordinates from ORCA-job 12420optt
  Br  0.84682640191926     -0.39028125392025      0.29614434922186
  C   2.71190861707515     -0.13573796289852      0.08790601916301
  C   3.59448606800573     -1.23815865820731      0.15562931292541
  N   3.36856501512479     -2.55461522208599      0.41503119768598
  C   4.56701572006124     -3.13962593564913      0.34837081123289
  C   5.61996028646266     -2.23804357650588      0.04291578450899
  C   6.99313424011296     -2.52629436058481     -0.10939205636498
  C   8.16488198297959     -2.78160939270025     -0.24243587995650
  C   4.96093182286355     -1.00719753880472     -0.07707070566473
  O   5.49548697339462      0.21204610029020     -0.37515449995370
  C   4.60646368950605      1.25019085045801     -0.42840835766294
  C   3.26526226156779      1.12602156985905     -0.21206934579440
  C   2.40007200286007      2.36644031644655     -0.24533259489932
  C   1.85376045525039      2.73676886445163      1.15970680361974
  C   2.28037750525260      4.19652075464665      1.35179722330573
  C   3.48442796331347      4.28768303113658      0.42671191785630
  O   3.11739317628458      3.51643658345780     -0.69864883281375
  H   4.68576659016312     -4.20187836479477      0.51554137634230
  H   9.19617877584367     -3.00466281644698     -0.35976682905768
  H   5.07716598484158      2.18241191999842     -0.69152060855075
  H   1.58332646698241      2.20901290029055     -0.95239133401504
  H   2.31221638210438      2.08965877112147      1.90739265347107
  H   0.77672046203969      2.59893176864269      1.22138958069869
  H   2.51817343682471      4.43691945398523      2.38780451275912
  H   1.50288512404047      4.87963306951208      1.00529074750871
  H   4.37589278754012      3.86446494213474      0.90749733374159
  H   3.71071980758527      5.29696418616691      0.08206142069240
