25
Coordinates from ORCA-job 12433optt
  Br  1.17815686832588      0.26451447169327      0.41177867448149
  C   3.08001102213522      0.20111116478100      0.25293081978354
  C   3.69990443985845     -1.01388668635987     -0.04390784361399
  N   5.10500313368253     -0.98025850301173     -0.08242271794822
  C   5.65488070291552     -2.25252001738394     -0.52046653288610
  C   4.48209632602117     -3.22628502538507     -0.42237710546975
  C   4.34042622734127     -4.18398236258169     -1.60250105537379
  C   5.44653451731562     -5.13329414867540     -1.69557860507376
  C   6.37257794547008     -5.89415995116071     -1.74614465627666
  C   3.23370773515689     -2.33285306514441     -0.29436848468209
  O   2.09350920681252     -2.78867443056658     -0.39073212569183
  C   5.86348503454591      0.16854439925755      0.00150412164011
  N   7.13939203374426      0.22372279155164     -0.18039307530757
  C   5.06687087102997      1.35050715767905      0.33123549652686
  N   3.72815393070319      1.31251324066051      0.44485761018524
  C   5.72396288725667      2.58923913259614      0.52029128895963
  C   6.27692497334615      3.64829129862216      0.68142647739110
  H   6.50203219769504     -2.53884103363806      0.10475940690084
  H   6.01798645862959     -2.16464106262447     -1.55349343100863
  H   4.55121973467505     -3.81713735972943      0.49616214135228
  H   4.28120516893411     -3.60579912278180     -2.52916964245801
  H   3.39180301823621     -4.71398113221605     -1.49695768778405
  H   7.19303248008581     -6.56810888654841     -1.79232973195820
  H   7.51812490910442     -0.68997221926689     -0.41114723090016
  H   6.76699817697839      4.57995135023320      0.81904388921173
