25
Coordinates from ORCA-job 12434optt
  Br  0.95747682158879     -0.26136344743335     -0.22127232716340
  C   2.82655186318335     -0.07289307187673     -0.06208007827947
  C   3.46498954148342      1.18549232850820     -0.13210931784721
  N   2.97854990788336      2.43964097335192     -0.29280203595877
  C   4.06106534816992      3.23699679762636     -0.31236571195026
  C   5.27771098344950      2.54012805722633     -0.16816506669245
  C   6.66803304849536      3.10307289946891     -0.16858209690037
  C   7.29500379574800      3.20089713556145      1.15553766549465
  C   7.81544804449144      3.28171023830385      2.23371849351080
  C   4.87481440849488      1.21697790834222     -0.05121896645714
  O   5.67306478352560      0.09946371888672      0.11813744837582
  C   4.99970771419604     -1.08094288478110      0.14250421851430
  O   5.84030782857423     -2.14033496328882      0.32402988508604
  C   6.83249914064940     -2.25999045414212     -0.67356936428148
  C   7.67656215864006     -3.45819540101378     -0.34082129284456
  O   8.50699229659512     -3.91320991173860     -1.07943155248556
  C   3.65059406337980     -1.20955100988542      0.05850410592186
  H   3.96008797738096      4.30909710454172     -0.43344195113500
  H   6.64480143007605      4.10492673682949     -0.60577760036472
  H   7.32664143315718      2.50230725030750     -0.80396211955624
  H   8.25598196818738      3.34139726651888      3.19858824102104
  H   7.47280338729280     -1.37217063829300     -0.70154439148852
  H   6.38408465068594     -2.38846580924068     -1.66610730902403
  H   7.48102454356698     -3.89943139228123      0.65513106073124
  H   3.24120286110403     -2.20855943149875      0.09410006377347
