25
Coordinates from ORCA-job 12444optt
  Br  7.15909078049582      0.99169454204895      0.57372105087547
  C   6.67445973064929     -0.92139598055554      0.64361606327991
  C   6.46324843233001     -1.69530695537673     -0.53412208688808
  N   5.35348538793114     -2.61523691114716     -0.35026059908845
  C   5.23804999501375     -3.25704974221004      0.99555303267811
  C   6.45903637941817     -2.79924786716454      1.73181606241744
  C   7.60062278781346     -3.56699670048429      1.61344013056535
  C   8.80129876555125     -2.96393296762011      1.23153969767375
  C   9.77806870753217     -3.59654611863713      0.44331176538339
  C   10.41480034488689     -2.93508749508049     -0.57966332210457
  C   10.02420843482797     -1.61013264777684     -1.09820437132811
  C   8.78592302206841     -1.19868712281662     -1.40007742138947
  C   7.52172158247050     -2.04302205364106     -1.42067574858571
  O   7.50633378200596     -2.99050264014622     -2.20842879478192
  C   11.50614545382610     -3.58179737071221     -1.23487956376619
  N   12.39885149485624     -4.09160569691245     -1.75634407900865
  N   6.55918250261241     -1.40389720561099      1.82413393629880
  H   4.49309191679072     -2.11450248577568     -0.52715404070087
  H   5.22105775212740     -4.34673460621479      0.91143556080505
  H   4.31852079146367     -2.92048907623105      1.48266408447007
  H   7.47409042976565     -4.63279087514914      1.45671198969989
  H   8.84334011496341     -1.88363691138995      1.26882949953959
  H   9.98366986636566     -4.65397594590535      0.58039110244827
  H   10.84546386752595     -0.92796007297016     -1.30043649283382
  H   8.67523767670784     -0.17915909252040     -1.75491745565924
