24
Coordinates from ORCA-job 12442optt
  Br  3.33354071623313     -1.76561532422753      2.06636132686645
  C   4.52565972476673     -0.30438438222364      1.87623960363641
  C   4.09018711194176      0.86271068745077      1.23423330711995
  N   2.79349218324107      0.87643951518738      0.80212201756322
  C   2.12814306663399      1.82245867937591      0.16036832490718
  C   0.69447208364430      1.33600679058942     -0.08414878085440
  C   -0.24173365150211      2.25066742970456     -0.72575133430829
  C   -1.02630024650414      2.98709495043428     -1.25599696230138
  C   2.48395562736746      3.08082708011776     -0.29809077610668
  C   3.75017375498683      3.68647819685482     -0.14994880464388
  C   4.85824154369413      3.17498058908986      0.46578848853082
  C   5.03626650769029      1.92446457019257      1.10375805004135
  N   6.29793111198538      1.72444577837347      1.64089032777156
  C   6.79019858703533      0.63491250646596      2.30064309646902
  O   7.92523384706042      0.63203944989599      2.74304674725265
  C   5.82837456021717     -0.52835056155512      2.42783337791894
  O   6.21310420125050     -1.54980057693789      2.97801673191395
  H   0.29698700524888      1.03070990853801      0.88611104889906
  H   0.76517019627097      0.41847435245998     -0.67319916927175
  H   -1.71849110040797      3.64344007906013     -1.72420023088250
  H   1.72073892113579      3.64947089572565     -0.81042065214015
  H   3.86044153910224      4.67935235094059     -0.57285394580583
  H   5.73797151686096      3.81283632827652      0.47174296309042
  H   6.96224119204679      2.48234070621048      1.56945524433386
