30
Coordinates from ORCA-job 12441opt
  Br  0.47132193045146     -0.26162911923546     -0.49692467408761
  C   2.84993107134734      0.08519952200426      0.24453211945124
  C   3.58915921504071     -1.05320546972745      0.20088098604687
  N   3.19453232246910     -2.39741714628529      0.45280809581048
  C   4.17296997298309     -3.21098240804763     -0.27485120871124
  C   5.48388572479945     -2.40315631194402     -0.15748381290848
  C   6.21622215058675     -2.64827897324790      1.16697823540109
  C   6.89073208896229     -4.01107362537798      1.24240561621055
  C   7.58879335551885     -4.21573805088200      2.59095440438458
  C   8.23200947294557     -5.52206098984226      2.70586643045880
  C   8.74657326431540     -6.60302668286576      2.77102660913466
  C   4.94059150391477     -0.99528964503701     -0.18604168315573
  C   5.53546716700449      0.18970288887611     -0.49291325243726
  Br  7.35523632760907      0.24133925921636     -1.03282226219224
  C   4.79901890296971      1.43553251917278     -0.45273537372153
  N   5.18562633845065      2.64255500014750     -0.69721528509393
  N   3.46544549111666      1.24185733867425     -0.08478079374521
  H   2.23201680361726     -2.54577794990444      0.16640734531283
  H   3.91162467985112     -3.30685452988674     -1.33665191359627
  H   4.25237593273067     -4.21012262734122      0.15593885356955
  H   6.16026329986818     -2.59986958093595     -0.99204127968313
  H   5.49075679720019     -2.54044905210872      1.97973037391036
  H   6.96893364400383     -1.86547603812040      1.30059605687767
  H   7.62783695548078     -4.10902575178975      0.44116302562141
  H   6.16163396761569     -4.81118788165258      1.10028552929813
  H   6.85907008946781     -4.10658672399575      3.39761049997605
  H   8.33853784865240     -3.43427476554152      2.74004142298952
  H   9.20267324089687     -7.56098550581669      2.83422203314559
  H   6.16743176225632      2.65072494935821     -0.95013323125527
  H   2.92332867787330      2.09555735213716     -0.08085286701152
