26
Coordinates from ORCA-job 12449optt
  Br  4.74272252062696     -2.18561073906231      2.80081076284939
  C   4.95433501450869     -1.14392133319803      1.23162579316728
  C   5.96990710301746     -0.25562855381278      1.10598083150941
  N   5.87100144635250      0.49202690384132     -0.10789266556038
  C   5.80675590026120     -0.43425920909031     -1.19011024901514
  C   6.94014762976641     -0.62168299743596     -2.02258573851299
  C   8.16269944855523     -0.33679102911785     -1.41662282582533
  C   9.47428509278267     -0.77008459082565     -1.46403738295353
  C   10.17765899108479     -0.72372133697547     -0.20765945805310
  C   9.59175519690869     -0.76278318856792      1.02697619870040
  C   8.17937538782230     -1.21998656955351      1.25890584375975
  N   7.77117557672384     -2.39202773214512      1.00930594478729
  N   7.23196615702633     -0.27253943231513      1.76367001385673
  N   4.76293772344216     -1.24119849196436     -1.16939882911721
  C   4.18455680682693     -1.42766092061058      0.04635842245272
  C   2.94605922152296     -2.11493300060401      0.11403139107294
  C   1.88805171730943     -2.68870914491652      0.18400893752287
  H   6.58897606688086      1.19003801653073     -0.21244189642037
  H   6.83990773738758     -1.31864963759175     -2.84381693844954
  H   8.05200615011008      0.26599844400591     -0.52885694155276
  H   9.93397671484219     -1.23432710668686     -2.32829205810067
  H   11.26536706033394     -0.66328577083554     -0.22615799070255
  H   10.19596406403156     -0.59744343584860      1.91289870686203
  H   8.53794474935360     -2.93407531985624      0.61995356848573
  H   7.64509639704916      0.64750359337617      1.83007487194493
  H   0.96137012547214     -3.20324741673960      0.24727168729210
