24
Coordinates from ORCA-job 12458optt
  Br  2.14876379324545      0.48515099795565      3.28809883397342
  C   3.26425492692049     -0.02338914076179      1.86067507007099
  C   3.43829721777523      0.71959927837028      0.76104594951212
  N   2.93470105128327      1.96883342417724      0.50076612782250
  C   1.62759043658204      2.06967266826162      0.31486989525459
  C   0.71340608513734      1.08999031728980     -0.11722259061321
  C   0.92865552153885     -0.00641005918232     -0.94159400659068
  C   1.94846026464029     -0.34998249643440     -1.87196915396572
  C   3.25786598661101     -0.06833736607532     -2.17971071135727
  C   4.46144922781171      0.34332565404571     -1.47496537805253
  N   5.51337084769276      0.60564315920008     -2.16632823524004
  N   4.49381012730320      0.25713452577526     -0.06701277190843
  C   5.56247833379562     -0.32731542421677      0.61028009176031
  N   5.42472198367846     -0.99280643568025      1.68071576699430
  N   4.07991957989675     -1.17150265855601      2.05972873858917
  C   1.05360752474487      3.37744155248697      0.56267069893526
  N   0.56128209464983      4.40036190129004      0.75098050896456
  H   -0.32152570681895      1.27974779033324      0.14684810711472
  H   0.02687085776336     -0.58624066016181     -1.10756172795006
  H   1.50667493408305     -0.94748178648708     -2.66913822058564
  H   3.53369290167542     -0.31853616634659     -3.19777990073968
  H   6.28578613140357      0.87320250443073     -1.56223473948215
  H   6.55876375550552     -0.21320167035479      0.20382754231200
  H   4.06010212308081     -1.48289990935949      3.01901010518145
