32
Coordinates from ORCA-job 12459opt
  Br  1.14302239797088     -0.20236489612914     -2.13105312484214
  C   1.87364705812589      0.68680665266187     -0.57629155564689
  C   2.94173701178605      1.57554616831906     -0.74906778985214
  N   3.26075610085412      2.15017700081714     -2.00038912873789
  C   2.20887319648456      3.00639594066540     -2.58209444749164
  C   1.52929485817216      4.02513318381705     -1.64022264423856
  C   0.29216101521272      3.51590874924840     -0.85545974828751
  C   0.44646674100746      3.61612547366036      0.66807781902999
  C   -0.53247458716226      2.72474760993007      1.46054968161833
  C   -0.02829537214403      2.32758517036380      2.83875734755759
  N   -0.49243207679354      2.77913889795721      3.94511585762067
  N   1.00130347880686      1.41664217868754      2.88995540036723
  C   1.81941964977346      1.13415269800281      1.76202158567615
  C   3.09171216089269      1.70492681789883      1.66675776010174
  C   3.62910891815049      1.94752521761570      0.41098486270637
  C   1.30166298163636      0.50500799793786      0.64509411619722
  Br  -0.61533562667371     -1.10211421737741      1.01172370701192
  H   4.11096794160678      2.69057880161626     -1.90518465714913
  H   1.44925314422788      2.36364048584094     -3.02770530335432
  H   2.69145378580190      3.53999890108298     -3.40348369214987
  H   1.23828082810960      4.88086688687722     -2.25538198083601
  H   2.27982706972310      4.40216063846755     -0.93641913146688
  H   0.10025421626913      2.47377526641488     -1.11567866626694
  H   -0.59666726161527      4.07018621833373     -1.17075445338774
  H   0.33126460674645      4.65719576132826      0.98693570499004
  H   1.46968123958872      3.34314638741928      0.91069619910488
  H   -1.48423468459839      3.24020311953235      1.60001431409322
  H   -0.73866619124077      1.80939566207051      0.90225554831523
  H   -1.27024283911507      3.40358089913028      3.75960483241496
  H   1.36982581303653      1.27506919255818      3.81817551085227
  H   3.57374876704768      2.11481690766102      2.54875357688581
  H   4.52962565831148      2.54604422758979      0.31871249916403
