23
Coordinates from ORCA-job 12454optt
  Br  1.35039165950361     -3.49692594947299      1.51856241718983
  C   3.18501621129588     -3.99475318547041      1.34635095909347
  C   3.81923045503929     -3.77242940346596      0.18750052975479
  N   3.28336726946660     -3.29643286038642     -1.01214692163018
  C   2.87216434907288     -4.24375735541277     -1.81265490109952
  C   2.74725297861743     -5.59831074095230     -1.39829732794915
  C   2.93820065569293     -6.78379201101097     -2.07962646949801
  C   3.08922229934891     -8.01556383150436     -1.42958543570656
  C   3.13230068499992     -8.31559994225384     -0.04420507091066
  C   3.31308129436565     -7.46135334599753      1.10758934611247
  C   4.15287845189074     -6.40318685371651      1.28633349693459
  S   5.46315135719454     -6.02248249979870      0.18635745044648
  C   5.23781008869672     -4.25715037233640      0.04165540801461
  N   6.16860241803918     -3.45854599026404     -0.25934207539206
  S   3.86134925430062     -5.14535281800879      2.51195611797760
  C   2.83548366385052     -9.67134372162701      0.28701692281391
  N   2.60201669252414    -10.76928409984404      0.55966261573729
  H   2.63373344270733     -3.94468901863594     -2.83334523770331
  H   2.63237633614694     -5.70679294113429     -0.33518506901205
  H   3.01456919055355     -6.78536859976492     -3.16362101142645
  H   3.09767223311712     -8.89218053368039     -2.06935721837588
  H   2.70082268431252     -7.70991021038247      1.97210336843401
  H   7.05830632926290     -3.95079371487888     -0.34772189380522
