24
Coordinates from ORCA-job 12463optt
  Br  0.47170111967141     -1.27404138293962      1.13792213553360
  C   1.84941163873596     -0.18263568638316      0.43613003068427
  C   1.70311993114234      1.22323064890651      0.47225405883561
  N   0.55603663002160      1.68311604580910      1.14504384049292
  C   0.36792401658882      2.86631861802056      1.59680360487980
  C   1.50562244120425      3.77839736546457      1.32796214118073
  C   1.70027675320703      3.87071231691749      0.00908068853188
  C   0.67111459703199      4.15804302495552     -1.04941504304548
  C   -0.47898091648964      4.93363371285643     -0.60238637844856
  C   -1.42490247052791      5.57970783312649     -0.25194327483684
  O   2.80466914499488      3.28013744471984     -0.51975837510507
  C   2.81931276856911      1.91230455975048     -0.19278753718544
  N   3.88212016489840      1.35405330766529     -0.65639750851094
  C   4.09292859989933     -0.00023994312274     -0.56096161609717
  N   5.19999789681533     -0.54918432614740     -0.91974774070069
  C   2.98757330775561     -0.87389462528937     -0.06079576242462
  N   3.08743202649331     -2.17229555897328     -0.07113774317732
  H   -0.54033275925120      3.08408471587209      2.14751238811285
  H   2.40034674707729      3.54424903633695      1.90299512650431
  H   0.33839207722671      3.20018600046202     -1.46741914377468
  H   1.17950187170959      4.68395294084858     -1.86300538114325
  H   -2.26510106207108      6.14498614240029      0.07057469495383
  H   5.82297899802227      0.18774937205759     -1.24531363099486
  H   4.00685647727455     -2.38857156331426     -0.46020957426489
