23
Coordinates from ORCA-job 12462optt
  Br  1.02920199849606     -0.02798570172632     -0.10286693445365
  C   2.90632004795094      0.13239223495795     -0.09357681716898
  C   3.55656880913219      1.32622325323893     -0.07184318705920
  N   3.10012014639932      2.60925711965465     -0.03935097939754
  C   4.22615997172281      3.33146033472232     -0.01992892585851
  C   4.19797299018942      4.76128731653698      0.04098699854629
  C   4.24042257202517      5.96062418419066      0.10067445884052
  C   5.43147631352712      2.58590701519138     -0.03774110211799
  C   6.82424384552688      3.09125105746579     -0.00674279270851
  C   7.41095145310430      3.57926731304764     -1.30956445024822
  O   6.87508883729050      3.59332106855222     -2.38046254691019
  C   5.01975658963045      1.25130514239357     -0.07038638345056
  N   5.72537116231332      0.11922499925717     -0.07821545531927
  C   5.02040393541320     -1.02096594165558     -0.09240571851250
  N   3.61847498116009     -1.00337431889950     -0.10675836673585
  C   5.55999112990878     -2.32746294261293     -0.09422611037835
  O   4.82511803597257     -3.35270641410594     -0.10359046646755
  H   4.25847175590980      7.02201191925199      0.14534166417030
  H   7.49815007732101      2.30166108332449      0.34856696352933
  H   6.94421584312441      3.92537583787577      0.69787649869717
  H   8.45283705951179      3.95857897608409     -1.20918269754939
  H   3.20248436545528     -1.92959581011240     -0.11959685696382
  H   6.65519807891448     -2.38905772663294     -0.08800679248352
