23
Coordinates from ORCA-job 12467optt
  Br  1.68043217023730     -0.68162293761974     -1.76922245388278
  C   3.34265927876861     -0.97343846576759     -0.86434601949123
  C   3.44626064816496     -0.96639549559971      0.59857328824809
  N   4.47734902837438     -0.17934342342857      1.01205125745539
  C   5.59579035269321     -0.48003441093897      0.34225596555380
  C   6.85501902204169     -0.00577021243149      0.85103939986743
  C   7.92855952376556      0.34713746038535      1.26023998224815
  C   5.57553639087794     -1.25258928177328     -0.83374956722608
  C   6.48510603478872     -2.41163845467927     -1.08683232429517
  C   6.12590547941599     -3.53768211472693     -0.09260108081875
  O   4.69463180794320     -3.64668954816239      0.01399784898943
  C   4.22270261982460     -4.33602728553965      1.05818959928448
  O   4.87708913204927     -5.07565228814178      1.73730828168416
  O   2.89966257501659     -4.16875496704852      1.24499881249653
  C   2.30888989142156     -2.94568605009597      0.85834214344627
  N   2.93999981786720     -1.87190558323982      1.38081524039249
  N   4.39553932125851     -1.26825378650536     -1.52297475132325
  H   8.87036162400926      0.66291942611886      1.63693991053906
  H   7.53960950577157     -2.17212970437372     -0.92586204621756
  H   6.35246365907191     -2.75599275508390     -2.11374735796211
  H   6.51345381788913     -3.29499236387173      0.89761931935470
  H   6.53265101231466     -4.50343802720802     -0.40044759510991
  H   1.83332728643403     -2.99901973026775     -0.11558785323314
