29
Coordinates from ORCA-job 12461optt
  Br  0.69147076253688     -0.36669490430738     -0.88615728320844
  C   3.05448544358914     -0.16602795478077      0.16022027447999
  C   3.76865758622063     -1.35114538758701      0.20547676006945
  N   3.11137061820931     -2.60180495231334      0.37467386561991
  C   3.27445808554728     -3.63383254793061     -0.62852330116489
  C   4.61772608993337     -4.35335231022135     -0.55292864090039
  C   4.68499419253519     -5.47071872691510     -1.60493344861997
  C   3.73588882002534     -6.55230980119944     -1.36045593825163
  C   2.95457075454465     -7.43066499216278     -1.12994357164159
  C   5.79007794641309     -3.41036883468561     -0.78535928221644
  O   5.94545556018641     -2.43812800095021      0.22784540540168
  C   5.16536702171330     -1.30421245413299      0.11823119875647
  C   5.81940335437390     -0.08729084699816     -0.01575524704854
  C   5.08438774032776      1.09221684627141     -0.04955595333108
  C   3.69672114690126      1.05138849229061      0.03397202245479
  C   2.11419563470024     -2.72058873931595      1.29756990344787
  O   1.46864263467002     -3.72810271849063      1.49086815168899
  H   3.15757186367077     -3.17162543343446     -1.61640411170494
  H   2.46562331815439     -4.34932804686857     -0.48396242868812
  H   4.72256095135192     -4.79225076063105      0.44306138737683
  H   5.69425617003926     -5.89114816961648     -1.63025239757306
  H   4.49546550048273     -5.04561896165604     -2.59607668723432
  H   2.24470660299398     -8.19327669542863     -0.91890280016881
  H   5.68215189113762     -2.91589604952508     -1.76051053863025
  H   6.72292720098804     -3.98005603409910     -0.79188106409594
  H   6.89998566751663     -0.08884194593706     -0.07732993238200
  H   5.59976990449478      2.04139287161206     -0.15169847035081
  H   3.11428287057091      1.96456483199677     -0.02003138679781
  H   1.97582466617108     -1.79627777298297      1.87274351471305
