24
Coordinates from ORCA-job 12464optt
  Br  1.23475699891833     -0.32067686902596      0.21171950049460
  C   3.12215073645397     -0.07020603558219      0.14978848039679
  C   3.71227551445066      1.20162305640542      0.20281524565734
  N   5.09468499808034      1.20647295084434      0.00493444652512
  C   5.84086126567477      2.46201702285982      0.07104454708032
  C   6.23189478358436      2.72300973028588      1.54026113306474
  C   7.11021858850262      3.87818941630027      1.67901465078411
  C   7.83865762054084      4.82642802279652      1.76381790477093
  C   5.04061697504693      3.58311978558575     -0.55599623540233
  C   3.66634368161368      3.71241050951744      0.06659472665868
  O   3.13286439951921      4.79880773319036      0.17952001884322
  C   3.00297723442314      2.44516306076783      0.47773659736905
  O   1.86593080181047      2.46875524349547      0.98660479137917
  C   5.87368555088570      0.05283938363365     -0.10807444793392
  O   7.10200786206898      0.12234119057454     -0.16477517461695
  C   5.11182225158427     -1.15903579902719     -0.14163656775645
  N   3.80560099157128     -1.18482594262756     -0.02480754262584
  H   6.75985116863330      2.29164918976149     -0.48448059116197
  H   6.74767923703606      1.83260043754260      1.90548933643441
  H   5.33094545485628      2.86864467937797      2.14209906294033
  H   8.47832368722215      5.67127840790779      1.84329548405341
  H   4.91718466841787      3.38105866719272     -1.62476947439291
  H   5.56735765949605      4.53127642199477     -0.45050576975459
  H   5.65030786960861     -2.08994026377179     -0.26169012280728
