22
Coordinates from ORCA-job 12476optt
  Br  1.27900604878906     -0.51182157003908     -0.82673713526228
  C   3.06166251129002     -0.21843619723345     -0.29150801284168
  C   3.56678564464839      1.03533248085370      0.02988886517115
  N   4.96044089504009      1.04181162454045      0.21501297583350
  C   5.67718845629241      2.22767752955907      0.41610477419964
  C   5.02813715419040      3.43027935213082      0.47219127643199
  C   3.64911826703279      3.49047384155634      0.37450086127287
  C   2.88271152169921      4.78343747537652      0.48302053938406
  C   3.73228052153946      5.96958881025079      0.56375676693404
  N   4.38760336097706      6.90860910930610      0.62915232449242
  C   2.89708276380515      2.28256131270184      0.19638399232191
  C   1.48881590338912      2.39657463876697      0.29381992099431
  C   0.31745476693504      2.64652854673430      0.44493718700279
  N   5.72805285420025     -0.04506951059567      0.19164373419699
  N   5.25484419777895     -1.19903357575877     -0.00251135022545
  C   3.87690980929416     -1.39692416815378     -0.27188945839292
  O   3.48663339454664     -2.53379120299959     -0.48088657572086
  H   6.73978200787243      2.07879588479903      0.49552807911749
  H   5.61653494822117      4.32870349905264      0.60366099079869
  H   2.22901782809695      4.77708070687452      1.36193431802547
  H   2.21283453635798      4.90768192144196     -0.37361511447435
  H   -0.72789739199699      2.80093949083517      0.55261104074021
