25
Coordinates from ORCA-job 12475optt
  Br  2.99516051427679      1.30758854755529      3.29327063956976
  C   3.23934139586420      1.06760139198913      1.42378209297245
  C   3.80140022495643      2.04741938954811      0.67921781348594
  N   3.72397753013231      3.44515360952266      0.94525364181494
  C   2.46433473630873      3.73988292307244      0.21661541682265
  C   1.37831975366487      2.98950312661670      0.52557608922744
  C   0.17584122222786      2.60645885513316     -0.13126152611752
  C   -0.45142544949913      1.38656176399391      0.23817873865781
  C   0.00372643673484      0.24325194927288      0.95074002391112
  N   1.16409380386120     -0.29360886596471      1.30832203269443
  C   2.35009787669938      0.13491072567228      0.71871650227304
  C   2.64873826574272     -0.09910277162231     -0.56375020992616
  O   3.73975527030166      0.49027037277499     -1.16564405305884
  C   4.19211678006157      1.68914926345213     -0.70134055008311
  N   4.96556121813210      2.41103042369557     -1.39987523556481
  C   -0.37467873235134      3.39882113994261     -1.16855297228335
  C   -0.83943526304229      4.08002188629695     -2.05138169997170
  H   3.60479965322102      3.59214541479028      1.94184683001526
  H   2.58589703831649      4.30639943969030     -0.69583400788594
  H   1.47315980653386      2.43056641285820      1.44604874197193
  H   -1.48572874588286      1.28790782143470     -0.07869688011114
  H   -0.83591908193031     -0.36751483824391      1.29019033751802
  H   2.03013262323460     -0.66548295288689     -1.24111208689046
  H   5.10435477415477      1.96378629760648     -2.30496242249555
  H   -1.24062165171950      4.67727867379897     -2.83234725654620
