23
Coordinates from ORCA-job 12489optt
  Br  0.98216613688665     -0.01183375005927      0.01087283791009
  C   2.89257611844162      0.06709755940766     -0.07063840415896
  C   3.60080143141662     -1.11987814051942     -0.01827640626749
  N   2.92694651005103     -2.31088397971698      0.08444594114910
  C   3.57263256761228     -3.53642456012909     -0.28568952885220
  C   4.88675889371512     -3.66395099494031      0.50121993181876
  C   4.63190135092862     -3.81310188562091      1.93706856236437
  C   4.39916015365088     -3.90517707282168      3.10774942181792
  C   5.60879066536462     -4.83941956177375     -0.00490450699403
  N   6.10421214996966     -5.77450105234918     -0.44419131252880
  C   5.74913122782745     -2.38000031308487      0.25131699905477
  O   6.97085865434229     -2.48431393547710      0.35774561175477
  C   5.03997455607124     -1.17036652326048     -0.01506107576802
  C   5.80821580572461     -0.00121043476562     -0.13997846224082
  S   5.16576908271906      1.56477162195287     -0.44692852526885
  C   3.41508939364350      1.39820624842587     -0.20906305433648
  N   2.67648362761661      2.44668618053691     -0.23536753825778
  H   1.92882317172289     -2.26214744897626     -0.03414384146903
  H   3.83244698814848     -3.56430593984286     -1.35142809932099
  H   2.91187161107360     -4.37130048781900     -0.05492633777012
  H   4.20248907641430     -3.96813524528639      4.15015991539652
  H   6.88227975634101     -0.05717951909379     -0.05694298347310
  H   3.24362107031784      3.28336923521368     -0.35303914455965
