26
Coordinates from ORCA-job 12488optt
  Br  0.82637959435139      0.33918118612097     -0.98934717316694
  C   3.04357702806160     -0.16446913118295      0.25695362813018
  C   3.90470582455952     -1.21046060228519      0.18316558905039
  N   3.55635480284922     -2.54066988252182     -0.05075611071925
  C   2.15456717107876     -2.88181362385815     -0.22859346203130
  C   1.80065442606295     -3.04616516283719     -1.71579442271178
  C   0.54347692373836     -3.76386690353358     -1.88534056762953
  C   -0.48495267557342     -4.37182242183646     -1.98481626165320
  C   4.50928529968179     -3.53657527699596     -0.16055460933322
  N   4.26772751613830     -4.76324933506568     -0.41756069802025
  C   5.97171976201375     -3.14057261130507      0.05079357848957
  N   6.88299053388385     -4.02469422179794     -0.03076724316034
  N   6.28136033228828     -1.83253448099628      0.32827872562264
  C   5.31167222346767     -0.96710365522182      0.37665559604390
  N   5.63521695759111      0.32653743950675      0.65076340503556
  N   4.81850806925965      1.37857796231872      0.73726909418271
  C   3.55918170598070      1.12624369309721      0.53092675843534
  H   1.55114841902654     -2.08021798254266      0.19112600046882
  H   1.94584505166262     -3.79969278389010      0.32311598352665
  H   2.59749268790285     -3.58854774363993     -2.23032196635967
  H   1.71882680781626     -2.04886197979657     -2.15448019398527
  H   -1.40391350445707     -4.89667336215624     -2.08006814475315
  H   3.28253731754248     -4.95930352754245     -0.55673361324534
  H   6.43353439232364     -4.91450304221023     -0.24392279393043
  H   6.61635884572243      0.51344476696873      0.79435209739282
  H   2.89674448702658      1.98081268320397      0.57065680432108
