21
Coordinates from ORCA-job 12486optt
  Br  0.96858615856095     -0.09313872112275      0.53082636041887
  C   2.75236024249637     -0.13780384838290     -0.06980768772784
  C   3.57033333848149     -1.26314333103224      0.08713528673184
  N   3.19755834066085     -2.50439057116840      0.45905943266552
  C   4.32883014467996     -3.24825919901230      0.42305268637078
  C   5.44815997743238     -2.51527249325650      0.03318033469022
  C   6.87552804023620     -2.94158985875340     -0.11724406020226
  C   7.77488425262410     -2.18847147914653      0.89409981127437
  C   9.20053420586076     -2.45524489800510      0.71127127144389
  N   10.31661381440828     -2.66250247175564      0.54965489266622
  C   7.02832786138221     -4.39087397095205      0.05534899509586
  N   7.16403408430350     -5.51838951215685      0.21199567506247
  C   4.97650777746143     -1.20844181255486     -0.18346684570655
  N   5.71232965560794     -0.09998472921856     -0.53273346271051
  C   5.13835078719245      1.02814184178718     -0.67624833748712
  S   3.43091891537441      1.41139713811533     -0.50248639014539
  H   4.30737522781590     -4.30155428692054      0.67115238814631
  H   7.23965482493131     -2.69912813996719     -1.12090590224664
  H   7.48301216963650     -2.45784752204864      1.90916758704708
  H   7.59105662302883     -1.12319764519481      0.75105504178577
  H   5.72304355782403      1.90569551074676     -0.93710707717290
