31
Coordinates from ORCA-job 12481optt
  Br  2.48135901854009      0.74314059467619     -3.08451966504723
  C   3.68448986810998      0.63940752301538     -1.59770190597393
  C   3.60616656828858      1.46588199119337     -0.51922348867254
  N   2.72345181808586      2.58999588466387     -0.51923860632224
  C   1.39130927632472      2.30372868861038     -0.01531875228719
  C   1.28799887081610      1.65226563016084      1.39478156760936
  C   1.52294915273549      0.13113277303689      1.44462270898685
  C   2.28144035719572     -0.32625482263151      2.70956861363610
  C   3.31330662081013     -1.44080488161034      2.49744907218772
  N   4.62237725528098     -0.91808491412460      2.07248553868689
  C   4.59098987543011     -0.33648816927752      0.76503948682987
  C   4.26979043986931      1.02681881580527      0.64983548401840
  C   4.56473802239288     -1.17595959821184     -0.37778272899641
  N   4.68845780676122     -2.45642227413708     -0.51226190618847
  O   4.45222693625860     -0.48027128664408     -1.59895453116066
  C   0.60180606068234      3.58010600176855      0.07969123844512
  O   1.07190110032129      4.68426418564814      0.13470619999068
  H   3.11932353394094      3.37025669981371     -0.00764700647984
  H   0.87944665757699      1.65323857005624     -0.73552525555279
  H   0.30304286145587      1.88056954505123      1.81984967141713
  H   2.01732037690890      2.16904746353812      2.02396103033029
  H   2.06811448799495     -0.18585645195509      0.55796292180449
  H   0.55579959070756     -0.37819822688446      1.39784980498955
  H   1.55918497625532     -0.66130388735754      3.45996025928181
  H   2.81644045594100      0.51941568754276      3.14825151456015
  H   2.91241133925244     -2.16976349618527      1.77677642864918
  H   3.46931675520784     -1.96341381866473      3.44583281503973
  H   5.30837170398290     -1.66363961582879      2.11738274965738
  H   4.32768618306563      1.66683666934032      1.52158139437887
  H   4.80722248093978     -2.87388857080187      0.40730209907071
  H   -0.49544045113357      3.43724329039343      0.16628324711101
