26
Coordinates from ORCA-job 12497optt
  Br  1.08322751395620      0.21068778648065     -0.31892425552495
  C   3.02265139395563      0.04726826700556     -0.10647440458090
  C   3.50952682350816     -1.25473628690816     -0.00120000508810
  N   2.72096818092315     -2.42274883801363      0.19105120007842
  C   3.42412090412383     -3.61879440682507     -0.22155366699997
  C   4.74934824012565     -3.65781284975065      0.52344375009130
  C   5.54978903216972     -4.90896767552138      0.22082931020868
  C   6.90526370801198     -4.87411770870102      0.93271878651751
  C   7.69929907630195     -6.07047556273167      0.66312017241460
  N   8.30482129000136     -7.01846881299549      0.44026921341378
  O   5.55909006087190     -2.56012063733359      0.14795065687875
  C   4.93224010147798     -1.32575459635448      0.13980967568614
  C   5.68698910871626     -0.19891545099724      0.17841941383133
  C   5.05090929113656      1.07584348352335      0.05938626317848
  N   3.67138061984921      1.15777752122829     -0.10310824286678
  C   5.79951402348626      2.25989156215807      0.09646376592151
  N   6.45894779168299      3.21846979705908      0.12452187927550
  H   1.81773189360385     -2.32408640471756     -0.25378104840659
  H   3.64667421444727     -3.64090399698569     -1.30123858615201
  H   2.83093831107365     -4.49817880765418      0.03749374332102
  H   4.53619099033521     -3.59550316800343      1.60072170537605
  H   5.70904544869397     -4.98133627496963     -0.85706897651767
  H   4.98397900313724     -5.78745838663006      0.53711650960269
  H   6.76676322553301     -4.79065836978444      2.01276788407819
  H   7.46536049394888     -3.99668618705149      0.60916743001858
  H   6.76322925892803     -0.27221399552611      0.25809782624446
