26
Coordinates from ORCA-job 12496optt
  Br  0.58695189360632     -1.52125742380980      0.82651692032796
  C   2.48190150934262     -1.22833952177890      1.12857991099341
  C   3.43122652088510     -1.69997194671394      0.20002918663977
  N   3.37311171666783     -1.80502252836742     -1.13704016386126
  C   4.59085943304724     -2.28993850044969     -1.49009941107830
  C   5.43816041125236     -2.52547702618859     -0.41034722555417
  C   6.84843644801750     -3.01974399793124     -0.43760745734757
  C   7.81760644038436     -1.94490518227131      0.05609533968689
  C   9.26966195063306     -2.34506956343591      0.06913412090408
  N   9.77170726395141     -3.44353450040506     -0.31403501975619
  N   10.17753609343696     -1.39565730688571      0.55757750833584
  C   9.92221237372941     -0.14199478789652      1.02847974219256
  O   10.78369318169312      0.60346665705935      1.42989645429915
  C   4.67942162566530     -2.13685691605466      0.71761285406085
  C   4.78539987889981     -2.29427222416386      2.11950151533871
  N   3.91368236794366     -1.89988953452762      2.98431265594652
  O   2.80412469142981     -1.18999435161710      2.44639215088186
  H   4.82920035421659     -2.46364494942138     -2.53328065146634
  H   7.10759029454754     -3.30722040221613     -1.46091563083101
  H   6.96509542640010     -3.91362764546946      0.18737077960493
  H   7.52447625239771     -1.64242440937785      1.06525820030283
  H   7.70112903527108     -1.05216985019824     -0.56533747192728
  H   9.04340496360828     -4.06820480722413     -0.64709652145967
  H   11.14682010162075     -1.68807857086624      0.55520559389943
  H   8.86154236130984      0.13717446934219      1.01362483262413
  H   5.62004741004203     -2.81834517913074      2.58117178724285
