31
Coordinates from ORCA-job 12495opt
  Br  1.23594749511550      1.45480716809461      3.39700565352942
  C   2.00485661306256      1.13922178528132      1.64877192632683
  C   3.19107687513530      1.78606212878087      1.31695800334650
  N   3.62551040899583      2.97846150749443      1.95163999428651
  C   3.35907632776862      4.18889148950232      1.14471849282497
  C   1.92194645185833      4.24069023199014      0.60415614921220
  C   1.79963590512591      3.73350221394551     -0.83767600805824
  C   0.36214147239551      3.53938109200411     -1.34595223074235
  C   -0.43420365048318      2.49315771101883     -0.60087136574954
  N   -1.15880090305397      2.87957930316629      0.37569905423184
  N   -0.40497714089631      1.18654700428090     -1.08461511906962
  C   0.83370831296549      0.54732953865354     -1.53601897757574
  C   1.77439917100808      0.22449424103139     -0.39074581580867
  O   3.12397607928690      0.46400187618008     -0.67802857137285
  C   3.83079606339922      1.35786585389822      0.11007893739155
  N   4.97661092852627      1.77489603368327     -0.28889583634875
  N   1.29713155096043      0.37776450557764      0.86371022403427
  H   4.62376131956541      2.92993884843624      2.12334345565832
  H   4.05919374871645      4.25487548282773      0.30003309723669
  H   3.54168389677591      5.04785468210114      1.79565180979559
  H   1.55955285822264      5.27271734310989      0.63473876840952
  H   1.26678552662827      3.67040152221827      1.26518750103733
  H   2.35113221394200      2.80384477311443     -0.95237914956853
  H   2.29264409822437      4.45022725394280     -1.50271377901276
  H   0.38872400811714      3.28601506217166     -2.40897280119604
  H   -0.18893307816488      4.47386946981154     -1.23222632344583
  H   -1.58345286601149      2.08403100754098      0.85349455717649
  H   -0.86764810875206      0.57514495620081     -0.42217688040459
  H   0.54013078428893     -0.33890858152720     -2.10583664589023
  H   1.35557090199123      1.20751026098551     -2.23376121294632
  H   5.18402273528540      1.35982423448251     -1.19431690730797
