23
Coordinates from ORCA-job 12508optt
  Br  1.95556917421298      0.80520307499685     -2.78120269036646
  C   3.32378684088720      0.50718662961907     -1.52276228950190
  C   3.70665763376254      1.40749609867286     -0.58713803978272
  N   3.01283042521197      2.53433213616333     -0.23447955327005
  C   1.72456367866485      2.33243205627732      0.11011721192716
  C   1.08910105084603      1.10276110827754      0.47837675298221
  C   1.78830588902239     -0.02769555245173      0.85945263394244
  C   1.44014207483266     -1.40604559484347      0.70908702289237
  C   2.30913247101839     -2.43039824227943      0.51461885858969
  O   3.71174793133581     -2.32208695877985      0.40678348609303
  C   4.16011220455536     -1.15955456898405     -0.13956813645357
  N   3.65152118867439     -0.85370746566415     -1.36318487761074
  N   4.92965873932507     -0.37731639100019      0.50944832889406
  C   4.95526106086839      0.97596395713366      0.14652971226159
  O   5.82497398364079      1.73470799613662      0.49483923495302
  C   0.87705439491571      3.49242188190821      0.08163471819423
  C   0.14343689826133      4.44732050059884      0.05838807593219
  H   0.01147364544915      1.06426219128696      0.33950794444079
  H   2.80170437830084      0.14600689782129      1.17758555359867
  H   0.39176012216893     -1.68894501557728      0.64893434617097
  H   2.00655700730976     -3.46344600669304      0.44018244044116
  H   2.97087113251963     -1.50470220901187     -1.73234855596085
  H   -0.48822192578425      5.30080347639250      0.03819782163272
