31
Coordinates from ORCA-job 12502opt
  Br  2.08918057481882     -0.72891731799206     -3.01501408565368
  C   3.15201854158794     -0.71781572686028     -0.66827899612786
  C   2.65150890790478     -1.56092585390690      0.27460132836403
  N   1.36978249591314     -2.19363224877698      0.18050926733126
  C   1.45263375976805     -3.45770067568023     -0.58091217858383
  C   2.32949429153358     -4.52881212819820      0.08256520433697
  C   3.85153862583018     -4.48905962774505     -0.25689546057628
  C   4.79294545534440     -4.79357637804926      0.92485361902936
  C   6.01791286460476     -3.88716971039851      1.09205621422311
  O   5.76996950123919     -2.67805713358477      1.82400166171319
  C   4.89438391144620     -1.87155269699206      1.12704821710925
  C   3.55662183610521     -2.04206785941293      1.25466532290667
  C   5.45047739647276     -0.99143291228366      0.11834371768536
  N   6.69107241747508     -0.72934316166270     -0.11621713469254
  N   4.46271911105906     -0.39245364259330     -0.65910567494703
  C   4.08584728198153     -5.40740589975775     -1.42825587696958
  O   4.92142581120674     -6.27024891163911     -1.50068952870328
  H   0.76561032686488     -1.57513965347631     -0.35257510101525
  H   1.81040734674178     -3.26860935069094     -1.60195147049303
  H   0.43326642807478     -3.84278054774123     -0.65601233846593
  H   1.93606972837816     -5.50863522918600     -0.20668925257924
  H   2.20157745717147     -4.46734921828851      1.16389722168348
  H   4.06405462185629     -3.49847123696808     -0.67250919867132
  H   5.17039790836640     -5.81109670724112      0.79626831418380
  H   4.23706968236912     -4.77667038098758      1.86434884961330
  H   6.44101863169227     -3.63386338338325      0.11283889818650
  H   6.78158088859849     -4.40771677145428      1.67020867810493
  H   3.18943239264508     -2.70275539755661      2.03249504503661
  H   7.26196573497001     -1.21916263304815      0.56715619403065
  H   4.80936950678158      0.21742544167523     -1.38862167207511
  H   3.39464656119804     -5.23200304611930     -2.27712978398453
