25
Coordinates from ORCA-job 12503optt
  Br  1.43517850436606     -0.30900779014408      1.30183940130809
  C   3.07914472664280     -0.02784890057720      0.38270619356662
  C   3.72057963566085      1.20857001307846      0.20810224431728
  N   3.15060014943459      2.45757165206644      0.32401093697261
  C   1.70608846829248      2.67027356762411      0.25601573049508
  C   1.09399576585074      3.03986011889784      1.61320315420344
  C   -0.36176225272788      3.08822037677115      1.53735227970421
  C   -1.55704447775099      3.11502556729994      1.43921402931079
  C   3.88789548549989      3.68198459038085      0.33746038083981
  O   3.25850931036468      4.74023341194575      0.48639525501353
  C   5.28236556747648      3.56930603741611      0.13711820888974
  C   5.86076974434614      2.35392262363078     -0.12359034314801
  C   5.11920357907613      1.15492654593561     -0.12959022014075
  C   5.69457267655890     -0.07256824708508     -0.40712292963700
  O   4.97941708405185     -1.23786051860748     -0.44461824755099
  C   3.69936916168767     -1.28444362220635      0.04098871877297
  O   3.19469140026070     -2.38125705332988      0.12804356170870
  H   1.23710501395242      1.78711083174396     -0.15923119678710
  H   1.54787818943574      3.50785620798872     -0.42146746597790
  H   1.48918998939421      4.01249263736743      1.90654531286162
  H   1.38908151686031      2.30411011743299      2.36141350222339
  H   -2.61620096322592      3.13805478371008      1.35875046896796
  H   5.84954288431542      4.48838789503201      0.15576887590042
  H   6.92677256108345      2.28932215234621     -0.31503338914187
  H   6.73205627909325     -0.20824299871840     -0.66727446267264
