24
Coordinates from ORCA-job 12500optt
  Br  1.09515575364047     -0.03767751150801     -0.26716860820976
  C   2.98455239031506     -0.00891138251810     -0.07510358283620
  C   3.67827483048359     -1.18955798199237      0.01066608072607
  N   3.07154989532199     -2.42185916189738     -0.03557916193010
  C   3.76808331905515     -3.60938331834512      0.05895576704403
  C   5.12358394163789     -3.58450307605325      0.20792775380526
  C   5.82392757050683     -2.36990742959667      0.27119551801874
  C   7.31597747604363     -2.33718153670936      0.43117256041742
  C   7.94866490607016     -2.25685827668793     -0.93190824013517
  O   8.74243269759292     -3.05464908637459     -1.36720972354952
  C   5.10698341913298     -1.14011222707011      0.15871586253232
  N   5.74763140859539      0.02751265734883      0.19055587828525
  C   5.07443347823728      1.17583782286601      0.10155092991251
  C   5.82522141341192      2.38832855731580      0.13906822521799
  C   6.45903195653633      3.41160566343794      0.16880836297620
  C   3.62361208029481      1.28475606049619     -0.02795906929010
  O   3.01396661241981      2.35751906036772     -0.09067026668810
  H   2.07000354005124     -2.42940343666264     -0.14470874403245
  H   3.17904970520721     -4.51186140560422      0.01446374675008
  H   5.65931336109773     -4.52220711326989      0.28375426911524
  H   7.69131252144089     -3.22873187629560      0.93483396993135
  H   7.59635553492880     -1.43819293951346      0.98861273781559
  H   7.60262281020856     -1.40612828836459     -1.54685556669507
  H   7.00925937776931      4.31956622663080      0.19488130081842
