24
Coordinates from ORCA-job 12516optt
  Br  1.83259628292119     -0.28102710841193     -2.58811107897390
  C   2.73843140485800      0.36088404514382     -1.06851933278487
  C   3.50810441416686      1.45825296155793     -1.06837666909175
  N   3.35318909167240      2.51561737801139     -2.00900520906287
  C   2.08648183390016      3.07529846691244     -1.57231436727574
  C   1.94417142202407      4.02148626947776     -0.64850792045296
  C   0.68533538164254      4.30181446133017      0.07344726778896
  C   -0.01114825659335      3.39952399442792      0.77520222985913
  C   0.30633634022315      1.92738082198954      0.86834572404568
  O   0.15060439916458      1.20951586227598     -0.13947555625276
  N   0.72245856368810      1.55405771544467      2.08715562709559
  C   1.60931528538509      0.55322799175970      2.30139919993732
  C   2.67092437350462      0.47019725499243      1.26770616783826
  N   2.39457650344154     -0.24244429639544      0.12910822906281
  N   3.69709553691461      1.26109484341675      1.33544823245435
  C   4.26467786721757      1.73979095574677      0.17979637237445
  O   5.24451828536579      2.46909935890337      0.14954000009750
  H   4.11301531047006      3.17066972555806     -1.84155552210128
  H   1.22638810029209      2.50863355969747     -1.90652586407777
  H   2.82937501859073      4.55356524501812     -0.30106232035328
  H   0.38454555255235      5.34333874283989      0.15460677524353
  H   -0.84347559912203      3.74527751750624      1.38171508486324
  H   1.89143864743319      0.36317805801364      3.32987274598970
  H   1.47104424028665     -0.66243382521672      0.13211018377662
