28
Coordinates from ORCA-job 12513optt
  Br  1.39357937811842      0.29696845020920     -0.20303264097221
  C   3.25720816701548      0.05472699242634      0.05266360538421
  C   3.85692375945098     -1.07450607860792     -0.37286639266312
  N   3.20382065732496     -2.17111425029629     -0.94711233421722
  C   2.24592283862934     -2.94694417429984     -0.17147187334554
  C   2.86856143196808     -4.02404259468598      0.71529974271592
  C   4.10837480645764     -3.51871559341311      1.45163919102893
  C   5.36911511699351     -3.49099510321761      0.56493768999523
  C   6.01869224532544     -2.15066696771349      0.24530987963127
  O   7.21269358091122     -2.02513535615558      0.43129395288771
  N   5.27905644395567     -1.12320210054077     -0.31633627759764
  C   5.93218907217187      0.14561215417035     -0.50026457410670
  C   5.33588203442429      1.25968405551613      0.07556975332944
  C   4.00074116853447      1.23334321478956      0.54718056992827
  N   3.36434703129638      2.16178355253657      1.22913743251339
  C   7.10695596302267      0.19342333319034     -1.26691326359179
  N   8.06775864981240      0.27004417460485     -1.91096163426874
  H   3.82671940610630     -2.72533679576011     -1.51416938002299
  H   1.51545595672884     -3.38631054768589     -0.85502980653853
  H   1.70123450113799     -2.24594147591707      0.45600180336092
  H   3.14469171328611     -4.90191066071417      0.12086809459789
  H   2.10861595820267     -4.35734480517788      1.42759390109702
  H   4.30705444881566     -4.17188927291161      2.30208807828933
  H   3.90975389149790     -2.52600216692669      1.86535741315422
  H   5.17443692087486     -4.01244858834125     -0.37628852677105
  H   6.17757317544372     -4.03690704835651      1.04699351255846
  H   5.88169213605151      2.19607025594392      0.09477348788158
  H   4.02194954644155      2.91175739733453      1.43873859574172
