27
Coordinates from ORCA-job 12515optt
  Br  1.67246896385149     -1.59140911646062      0.33178273664179
  C   2.75471967668315     -0.04657131131436     -0.11552165262134
  C   2.52222595828383      1.13998556606016      0.61004978875111
  N   1.46692495958784      1.29680725339595      1.53936658328293
  C   0.14764921132431      1.62911006932397      0.99878452637335
  C   -0.02852211387422      3.03403831861860      0.40938675200909
  C   0.74962994941916      3.28818360687321     -0.89911720104584
  C   1.77595978388398      4.43239757503617     -0.83041244821971
  C   2.56125735730844      4.54466341964786      0.46326090335479
  O   2.55925498750097      5.57284188873071      1.12180480274589
  N   3.26264683203222      3.45531030708970      0.86604712515062
  C   3.37648956598901      2.20404687874579      0.18049022820388
  N   4.25746295368913      2.11268174619041     -0.76375341075664
  C   4.36074001842514      0.90463908786260     -1.40157567683290
  N   3.59940400549767     -0.20894625167084     -1.06586143563166
  C   5.29573288847315      0.77617259177871     -2.44510020125070
  N   6.06787066620530      0.66841540372017     -3.30438156321918
  H   1.72089735471706      1.95354818384793      2.26568121023896
  H   -0.57677168917203      1.49283860253182      1.80727896763522
  H   -0.08498816071454      0.87851366114728      0.23895009493696
  H   0.25535811735934      3.77135254543365      1.16828133259901
  H   -1.09801051928451      3.18450679242133      0.23660326576402
  H   0.04996081093411      3.53825279050938     -1.69887401586959
  H   1.24321814805356      2.37077926922623     -1.21669539059688
  H   2.49099184543659      4.32877225299273     -1.65021552809853
  H   1.27688793159514      5.39550546862574     -0.93115854364941
  H   3.80254049679464      3.59256339963567      1.70889875010476
