31
Coordinates from ORCA-job 12519optt
  Br  0.97240937455332     -0.18089726229755      0.16350960805766
  C   2.91712913385004     -0.12517561661830      0.16408491874936
  C   3.58288326567182     -1.31017676756202      0.29088951111850
  N   3.01384245459373     -2.59111335032935      0.39625787754546
  C   3.28630381545006     -3.49336167783438     -0.73177048456539
  C   4.53787863792127     -4.33275838592048     -0.50309982150701
  C   5.81820885028557     -3.51409142326087     -0.36957212343213
  C   5.73947454386768     -2.43059435585563      0.70967529893742
  N   4.97934396248180     -1.27036986084693      0.29571008790657
  C   5.64234140170093     -0.05611911164666     -0.00904762980710
  C   4.81696884435356      1.07742592515961     -0.11682850586709
  N   3.45784416707825      1.07180954371635      0.03127191702950
  N   6.95122175483669     -0.12923410352125     -0.13539464814667
  C   7.60917972395759      1.10237422070507     -0.42827476609873
  C   9.11077076040805      0.80818302510082     -0.52793362169743
  C   9.91838779170019      1.98215045982384     -0.85322489622055
  N   10.55097369786019      2.90480838420525     -1.11072196801350
  H   2.02061049244029     -2.49278022683944      0.54657144092943
  H   3.37648095247686     -2.92367541314993     -1.66635232871732
  H   2.42591131157444     -4.15845247611581     -0.83330246595624
  H   4.63777333678907     -5.04899586060651     -1.32467054629154
  H   4.38707209595889     -4.90996469412819      0.41469231179535
  H   6.06458271687199     -3.02311408295508     -1.31488827412793
  H   6.64671944974305     -4.18806089979716     -0.13125241100915
  H   6.73877745311201     -2.06758415284899      0.93198802994972
  H   5.29219519175683     -2.84761368192587      1.61760008497957
  H   5.26789449639191      2.03722987265891     -0.32132905463600
  H   7.45359082438531      1.87439713474865      0.34443807091728
  H   7.27600397121438      1.55470315303081     -1.37794580046544
  H   9.27216080932588      0.04745802266209     -1.29320144966439
  H   9.45806471738816      0.39459366224905      0.42012163830775
