21
Coordinates from ORCA-job 12518optt
  Br  8.33549186733695      5.26576546502340      1.67153633939931
  C   7.68167299505726      3.93968832789156      0.53146620873201
  C   6.53017734190509      3.25798730704633      0.64396696669914
  N   6.27141754395311      2.16750082523807     -0.16379047617407
  C   5.00664372799417      1.73491876629369     -0.46269766262460
  C   3.85734740012956      2.31179491474415     -0.09748199113264
  C   3.82173341478373      3.56580581391017      0.73591859717716
  C   3.81973347701003      4.78803359685466     -0.05967606186976
  C   3.87265967473803      5.76589614619031     -0.74818868676040
  S   5.24733839135170      3.55377033180208      1.85381430476387
  O   5.37233018014516      4.84743484998209      2.45738800602549
  O   5.12224964350799      2.38422060479648      2.67805109818004
  N   7.30344595970048      1.27981874367777     -0.65780309414619
  N   8.53819744812568      1.75059507869997     -0.53964007125403
  S   8.74564167514612      3.32572074789599     -0.76603232999940
  O   8.17141683596292      3.82035570745700     -1.99258436413252
  O   10.09812646255041      3.68194302563746     -0.45528508071148
  H   2.98021458835182      3.55734861947153      1.43442169692632
  H   3.94056055650319      6.63045692030005     -1.36319794963813
  H   2.91846795884404      1.89534170162823     -0.42700563959236
  H   5.02613285690240      0.83360250545892     -1.06017980986778
