23
Coordinates from ORCA-job 12514optt
  Br  1.06543700592382     -1.28503943014137      0.90304099671757
  C   3.30574809654353     -0.26859262063881      0.25604503511925
  C   3.91324444717288      0.93112455234292      0.08045135369618
  N   3.43536235463614      2.21185530842812     -0.01067522095571
  C   2.06313302560548      2.63738440786324      0.06862023068609
  C   1.56704333900090      3.21745861069036     -1.26133034405615
  C   1.54270479784956      2.21949948082520     -2.32571791424004
  C   1.53033963072816      1.37260187488401     -3.17285525240609
  C   4.52644688992146      3.08613752440062     -0.15029527207887
  O   4.39008274867648      4.29586763441074     -0.22765635745314
  N   5.70086387613973      2.34679380401336     -0.16853473069673
  C   5.33599100082668      1.08730022612694     -0.02692981328404
  C   6.12171414659948     -0.09215487952210      0.03873871814581
  Br  7.98746208798076      0.04874708870756     -0.12146620602634
  C   5.47595268567838     -1.28448893843220      0.22658715020541
  Br  6.35884690791947     -2.94320700208211      0.37996401584914
  N   4.12657672742555     -1.34441077546306      0.32785331455502
  H   1.98081301787971      3.41295008899084      0.83270104869356
  H   1.46464138998908      1.77348808683539      0.36208106703961
  H   2.22256391378773      4.04522460277834     -1.53925706457605
  H   0.56135153370397      3.61997126586817     -1.11838753093890
  H   1.52293833428350      0.60736590696736     -3.90991619277145
  H   3.67774204172738     -2.23787681785357      0.49693896877589
