20
Coordinates from ORCA-job 12529optt
  Br  0.87003359474819     -0.52550825835667      0.10395527533584
  C   2.75664065846105     -0.27651624127603      0.08867567145515
  C   3.38255849030781      0.98818483003742      0.08930253689401
  N   2.93613184534419      2.29264447876694      0.09519991298317
  C   1.55568914275167      2.73027613631967      0.09952447917575
  C   1.42385700956359      4.18614854457439      0.09968820751814
  C   1.27206286256965      5.37342748205770      0.10026401585176
  C   4.05777921634917      3.07978916111862      0.09247092741284
  N   5.16781165232803      2.39694521780690      0.08513283778308
  C   4.79110735995758      1.06860831729425      0.08229749070177
  N   5.63585270846610      0.03144716807393      0.07367869946212
  C   5.03318730523845     -1.17647845427881      0.07121295284004
  C   3.59718681490612     -1.35995815237510      0.07846210374227
  S   3.30291010248683     -3.03884637922522      0.07225042662768
  N   4.99368991616824     -3.42574572388174      0.06106330431809
  N   5.70882109467964     -2.33946431026334      0.06226697084452
  H   1.04443743753677      2.32821023046955      0.97732922704411
  H   1.03952724052794      2.32814909159775     -0.77541161061460
  H   1.14816092933923      6.42926831037173      0.10041864842729
  H   3.97355461826974      4.15441855116806      0.09621792219696
