23
Coordinates from ORCA-job 12524optt
  Br  1.03120997376561      0.20818549119169      0.03694254327300
  C   2.92683771134231      0.13245833903230      0.03944296490130
  C   3.65779705502690      1.32530983269138      0.04147508654485
  N   3.21138291578446      2.60086569732710      0.04244372708332
  C   4.32748986768941      3.34866488652837      0.04418891894668
  C   5.50884491097672      2.60084090909719      0.04431351286829
  C   6.92085827421245      3.10789781511063      0.04581923847529
  C   7.00593221752732      4.56999671145276      0.04642619063696
  N   7.09745618400058      5.71308672564985      0.04765743192997
  C   5.09197400791962      1.25261499774827      0.04259201071837
  C   5.75587776104142      0.00245360298260      0.04193430458304
  C   7.15309882011383     -0.22401540726819      0.04287311045777
  C   7.59760713689413     -1.54120357987314      0.04191838087046
  N   6.85736900507353     -2.62315579558467      0.04037167506398
  O   5.48504087647733     -2.40716085227230      0.03959895690857
  C   4.94677866522536     -1.14919349099432      0.04019603697826
  C   3.55087522972847     -1.09880589350064      0.03892754547296
  H   4.26769544312976      4.43062174950412      0.04532169107830
  H   7.47675034049264      2.75906706654490     -0.83140466585541
  H   7.47527488571398      2.75847125942572      0.92374301728215
  H   7.86789109700011      0.58370939060411      0.04427218222287
  H   8.65759803216641     -1.77119241789394      0.04244104329845
  H   2.98735958869760     -2.02051703750383      0.03750509626058
