27
Coordinates from ORCA-job 12528optt
  Br  0.98292406095175      0.00159958115843     -0.46193561074878
  C   2.87790221279352     -0.02640634462563     -0.25050961681178
  C   3.62505733634753     -1.21378517876525     -0.52961032368658
  N   3.01227239719846     -2.48756079958643     -0.72628225296534
  C   2.72731750033898     -3.21637718528780      0.51434305827274
  C   3.91813138021578     -3.99700939931105      1.08103867818449
  C   5.09671973519671     -3.17333641771435      1.62574528513221
  C   6.21606158316317     -2.92182157509114      0.60670737267997
  N   5.76014004759292     -2.32126618586162     -0.64438207626786
  C   5.01657106563490     -1.12956282591606     -0.42000787677765
  N   5.70698680425251     -0.06230003403152     -0.04068426912426
  C   4.97116658213139      1.06848267506162      0.21451789098144
  C   3.55161615740713      1.11523918605304      0.09698244804872
  S   3.04384232170946      2.72499107286008      0.46238553154857
  N   4.58289166667857      3.32110850404750      0.76161605933447
  C   5.45607240702358      2.32933756870475      0.59037015106145
  H   2.15486358267876     -2.37756957739146     -1.25236858231399
  H   1.93149635123921     -3.93488221013959      0.29422828726413
  H   2.34763397420965     -2.53408376806627      1.28870723941255
  H   4.27583545481759     -4.69323772892200      0.31327258247930
  H   3.51847776166060     -4.61366639034962      1.89200225049859
  H   5.53820855414001     -3.69249854506420      2.48190046147461
  H   4.73021333103904     -2.21241582099401      1.99840814042939
  H   6.70569967330876     -3.86917823824786      0.36116771264611
  H   6.96572154929605     -2.26098710242594      1.04443194991246
  H   5.13481937877796     -2.97261156736863     -1.10739038268680
  H   6.51035713019594      2.53379830727502      0.73734589202183
