24
Coordinates from ORCA-job 12532optt
  Br  4.88408164739757     -1.93689477056303     -3.79150350900515
  C   5.54965443092116     -1.22651930535146     -2.16252282699744
  C   6.86699199749481     -0.73906270385045     -2.03746956728646
  N   7.09737790174801      0.12496193578462     -0.91404246797671
  C   6.55461619485301     -0.28678273857637      0.15120900558004
  C   7.27707775816934     -0.17763333843559      1.47018314963226
  C   8.17499780746916     -1.45666096193321      1.62847894964955
  C   9.69366413163506     -1.32633362028760      1.29691793240514
  N   10.23253959019237     -2.33569460383607      0.34862172035983
  C   9.57048758374904     -2.26536843917937     -0.85967762137447
  N   9.10781447931796     -1.16382485110106     -1.30580489242906
  C   8.04496045644232     -1.59203941472131     -2.08939136113988
  N   8.06943730778766     -2.89058969409189     -2.34308862510473
  O   9.12592256714580     -3.35815038085013     -1.48594098548650
  O   5.48498575577988     -1.10661489258251      0.20267635659940
  C   4.74593388428935     -1.36045516268083     -1.02033235366538
  O   3.59705028485504     -1.71123056238082     -0.86119638922264
  H   6.57507001527260     -0.12417448395321      2.30235552953597
  H   7.89290854990563      0.72111844067761      1.45666835966411
  H   7.74706432348071     -2.24665360117081      1.00560837954680
  H   8.07975755123780     -1.81084899984906      2.65684178703416
  H   10.28898659529532     -1.40791215027643      2.20692383189870
  H   9.89038490155725     -0.35358367365242      0.85303323386187
  H   10.25423428400302     -3.27705202713858      0.71445236392059
