32
Coordinates from ORCA-job 12531opt
  Br  1.12713873660055     -1.89125289147692     -1.00938867400031
  C   2.83150239296613     -1.83626722972427     -0.12959752853374
  C   2.96826595166549     -2.41943993947777      1.16565571229436
  N   4.04027605790876     -1.85493377247414      1.90361321837670
  C   5.24006127885622     -1.84304790067277      1.18617568022989
  C   5.24398939296904     -1.75667409187646     -0.15132741943903
  C   6.40400337826405     -2.23461633324375     -0.96676056874647
  C   6.06227213941403     -3.64651150614109     -1.50193023768544
  N   5.71990886809416     -4.57894435495904     -0.42355440833688
  C   4.57442273488873     -5.46047610534298     -0.66777483362447
  C   4.30090694648434     -6.31610241589551      0.59742288684940
  C   2.81275043413490     -6.12831420233899      0.94010816450869
  C   2.47753773900545     -4.73669175423907      0.40160980167194
  C   3.21950588029255     -4.76677148837109     -0.94341114241709
  O   2.98128946303388     -3.82370854674424      1.37290810536304
  C   3.95846478887085     -1.51787421251010     -0.89541359647933
  O   4.00333196988924     -1.17166940252081     -2.09461370348861
  H   4.12407487797924     -2.23050789803148      2.83617029367001
  H   6.15327264888737     -1.96505628194066      1.76242453510010
  H   7.31041982325839     -2.28086894329284     -0.35485469855246
  H   6.58099476876331     -1.58504461721342     -1.82476938952169
  H   6.91880449488968     -4.03641908974801     -2.06195913946666
  H   5.23667337759997     -3.52088199442959     -2.20940516710628
  H   5.49175488799096     -4.03294176123506      0.40107358715159
  H   4.83759110950408     -6.09607348815034     -1.51787925393142
  H   4.92063755110135     -5.93076286573610      1.40844857582640
  H   4.56800628974899     -7.36398774788569      0.45590108321210
  H   2.60509789436387     -6.20939621762503      2.00719363779148
  H   2.19880918178602     -6.86374996659840      0.41342925276154
  H   1.40585860823346     -4.57107407230381      0.26658420481925
  H   3.30654392899163     -3.80643933476562     -1.43928567005615
  H   2.61783240356312     -5.40749957303473     -1.59679330824045
