30
Coordinates from ORCA-job 12533optt
  Br  1.59418337252267     -0.32395098558724     -2.16393113596010
  C   3.09356015973923     -0.13983282650061     -0.97957038351581
  C   3.55669728684996      1.14483589722288     -0.60950130571177
  N   2.79625567068352      2.34080640248236     -0.56434631140771
  C   1.45154383231848      2.39730522982713      0.04839120145669
  C   1.20092082237609      1.80772809051175      1.48162879113583
  C   1.69374941126019      0.37091928730585      1.45950825400985
  C   1.23435944578354     -0.81063332236363      2.28874476617114
  N   2.14091556639190     -1.91996388049825      1.93317913169171
  C   2.45949635969517     -2.19436732790974      0.50891358183720
  C   3.46330437207031     -1.20593889032423     -0.09215463198643
  N   4.62764598163709     -1.18566993529351      0.47472932723955
  N   5.43264800444622     -0.11695386886446      0.08281488593548
  C   4.83564475919320      1.17217858716901     -0.01130705991315
  O   5.43254273638974      2.17199705558302      0.42961131213296
  C   1.01605632684704      3.79786045967824      0.03308153841695
  C   0.65943868113713      4.94227357141622      0.07132136525542
  H   3.40082849873498      3.06892038134974     -0.19559421375778
  H   0.78239036918399      1.84020292837810     -0.61372412869949
  H   0.12405464199823      1.88848824572750      1.66363380515276
  H   1.71159529978184      2.41478370934368      2.23267462093480
  H   2.77595636409873      0.39984572930252      1.55971379420706
  H   1.47228876778477      0.03905685640654      0.45545516477600
  H   0.17666800380642     -1.03239797801619      2.06968589294477
  H   1.32529039834898     -0.65089512054514      3.36719393915992
  H   1.81680350378866     -2.77805232820288      2.35723829912183
  H   1.56253932105668     -2.22339172429299     -0.12143055775570
  H   2.90578369008626     -3.18992693407796      0.50050291259006
  H   6.24998446121465     -0.06968698094337      0.67421151187221
  H   0.34985389077427      5.95845967171564      0.09132563266577
