25
Coordinates from ORCA-job 12537optt
  Br  1.24722045158843     -0.03542345522687     -0.43050850237057
  C   3.11503091996029     -0.15176802712055     -0.13742151343286
  C   3.68464283146241     -1.34173151160350      0.13820657192834
  N   2.99434782090667     -2.54570934081559      0.23099341020685
  C   3.68650032368355     -3.78312375763651     -0.05891930200385
  C   5.03540318128719     -3.78020417285187      0.64490770151595
  C   5.78096508215835     -5.08050091472562      0.34053746667796
  C   7.01918453180028     -5.22018754741677      1.10499094822764
  N   7.98008216602665     -5.33992568159346      1.71808752716924
  C   5.81080473967102     -2.53008904454587      0.20728378555231
  C   6.19685039428357     -2.61850992301644     -1.21615941243309
  C   6.46041524150500     -2.70877373959462     -2.38228065739563
  N   5.01307385882115     -1.35772779644742      0.48638598310558
  N   5.83843067490835     -0.18200330841420      0.37896922021663
  N   5.22378938203285      0.97244866155283      0.19047039593467
  C   3.90308558565048      1.10094638540724     -0.06630137311380
  O   3.35170861584817      2.19155514393869     -0.24687187807888
  H   2.06583018981167     -2.47100726582358     -0.15898659200383
  H   3.85387926191254     -3.93140335274412     -1.13594530297960
  H   3.07694224175458     -4.61341374060888      0.30480613418347
  H   4.87212993380104     -3.68964672182060      1.72049163670032
  H   6.02722943054323     -5.12818961472487     -0.72266817693062
  H   5.14673981017197     -5.93716341420152      0.57882650195580
  H   6.72290512255215     -2.42337073568485      0.80070675979200
  H   6.71280820785828     -2.73807712428096     -3.41460133242403
