27
Coordinates from ORCA-job 12543optt
  Br  0.68523511257593     -0.16727124831148     -0.79062440621195
  C   3.10446188451714     -0.06087093377818      0.04970987426930
  C   3.81721332417990     -1.21807580645194      0.15282915685969
  N   3.13012128892274     -2.44818167857678      0.35193643340365
  C   3.30430310959934     -3.46958671297612     -0.66343212398877
  C   4.61455227412530     -4.22449869909951     -0.48091588587252
  C   4.71260858116523     -5.38056049641069     -1.48687494025587
  C   3.69852200682735     -6.41422270491191     -1.28641836579276
  N   2.91829918183768     -7.23867947348321     -1.12475799298758
  C   5.82883059396621     -3.32688454123797     -0.69473894915449
  N   6.00270081846341     -2.28228219842532      0.30621499769897
  C   5.23541225181250     -1.12350469833839      0.20292742421555
  C   5.82530424213970      0.13140965283624      0.17775240891127
  Br  7.71006867583666      0.33042541781415      0.22707987189618
  C   5.08702935892427      1.35684038825714      0.07945063364445
  O   5.53815543934934      2.49692429325822      0.03308057328352
  N   3.71229596877811      1.13134793144183      0.01297930209621
  H   2.14548002307002     -2.20922402834396      0.41843679500383
  H   3.27172577400101     -3.05022050317748     -1.68307723551052
  H   2.47460597318567     -4.17391836360862     -0.57158796401115
  H   4.64867900698687     -4.61850703140116      0.53736553492480
  H   5.68946359943421     -5.86478693409557     -1.42014234683429
  H   4.60774624730164     -4.99749600790299     -2.50574773888268
  H   5.76882573647081     -2.89718272435579     -1.70672792030242
  H   6.73109447868230     -3.94181185833538     -0.65706150873717
  H   6.98046429588633     -2.04973759487311      0.40852343025410
  H   3.14680075196015      1.96555655448805     -0.08417905791936
