24
Coordinates from ORCA-job 12546optt
  Br  1.41935131295614     -0.28458197683116     -1.37737861137726
  C   3.00764032550906     -0.23005141804163     -0.32513009682620
  C   3.84067289611185     -1.34900587936180     -0.21975272840849
  N   3.39264144654557     -2.60973651942781     -0.38679080353749
  C   4.19081147498873     -3.63128698835838     -0.21343687322840
  C   3.60479985489098     -5.00628000377032     -0.41025953468361
  C   2.18581390587665     -4.98032980350032     -0.97998624787706
  C   2.15810619876081     -4.68543791640400     -2.41277909518245
  N   2.12861964714975     -4.51706691167010     -3.54659628023796
  C   5.58775398710057     -3.52990468726786      0.18259509543078
  N   6.39638506353057     -4.53629595913180      0.41520725031738
  C   6.05662219882079     -2.17607801595100      0.30321674324670
  C   5.20640372072207     -1.14041435080117      0.10528485080333
  O   5.71115294517753      0.15006841773179      0.22176496256570
  C   4.94615076252264      1.24479249099066      0.01971595765377
  O   5.42696758469688      2.34548743829063      0.14232484329587
  N   3.64287218052956      1.02639498581075     -0.30212455956414
  H   3.58180815047863     -5.53059003445417      0.55225097343776
  H   4.25454391649680     -5.59891558685751     -1.06146936997170
  H   1.60149473921626     -4.21309220259459     -0.47184401567112
  H   1.70258770062682     -5.94915796313937     -0.84331845723178
  H   5.91132238127390     -5.41924987925056      0.28246448478367
  H   7.09583661655487     -1.99783451194048      0.54499612015917
  H   3.07764098946247      1.85956727593026     -0.31695460789645
