24
Coordinates from ORCA-job 12542optt
  Br  1.08781440191353      0.27061539266584      2.45477465428192
  C   2.22093764077135      0.87049932706675      1.07718755546806
  C   3.18413185987021      1.80839975150315      1.31153137324020
  N   3.19657803888758      2.69630897202837      2.37825027857506
  C   1.99518429158917      3.51852365469122      2.14445286191589
  C   1.88317314970517      4.18075542490798      0.96341715185326
  C   0.74770106077443      4.15945026394248      0.08476282504057
  C   0.09744829900729      2.94511303837881      0.01429650732420
  N   -0.60901033864363      2.43358512941609     -0.99939361409281
  C   -0.53004534443538      1.10938529888908     -1.16338430874483
  C   0.49900351321855      0.20037843969309     -0.75550432358427
  O   0.40216492123081     -1.03625467817385     -0.84719244064426
  C   1.87512732628005      0.70415344416962     -0.31154062072120
  N   2.71842604737652      1.00312053131999     -1.24916492003143
  C   3.97557626596874      1.41294014370817     -0.87704060939046
  N   5.04944155158156      1.33648280374621     -1.53552903618763
  O   4.07274041555458      2.07867075916527      0.34719421705657
  H   4.06404347760782      3.21992260048183      2.40456850777183
  H   1.12779017214954      3.18437781106720      2.69746745130209
  H   2.81117644204477      4.54469126553077      0.51812363055043
  H   0.70008105753166      4.84002871766695     -0.75610318387486
  H   0.24941255333907      2.28482699056291      0.86366335070421
  H   -1.31116426748177      0.62873040945409     -1.74810553092525
  H   4.83126746415824      0.88829450811785     -2.42173177688726
