23
Coordinates from ORCA-job 12554optt
  Br  1.26725481119625      0.08636535311858      0.18423518063336
  C   3.11842340524416     -0.16373643900127      0.07033937805584
  C   3.71877205353987     -1.42387609001034      0.02372545616911
  N   3.02427317288217     -2.55400787364396      0.02962582846617
  C   3.69014893696064     -3.72715140187219     -0.01877596018901
  C   2.92567482621701     -4.92237741599197     -0.02417774869813
  C   2.32817101355628     -5.97199982432983     -0.02954262033118
  C   5.13575892685349     -3.86280242500707     -0.07819915955552
  N   5.83083948432922     -4.95861074689759     -0.13422116448179
  C   5.82849269654962     -2.58252535690136     -0.07179149372308
  O   7.20797794620283     -2.55921899092070     -0.20551431416205
  C   7.94608001377276     -3.25354827704898      0.69142894636837
  N   9.20256119678352     -3.30703071435500      0.64901417947368
  C   5.16736534329984     -1.40058765952837     -0.02945499614614
  C   5.81708221605667     -0.10507238748121     -0.04924346564004
  N   5.19196624970663      1.03126846082741     -0.00709235431646
  N   3.86894984411760      0.99436927164679      0.05855153275371
  H   1.78201831991339     -6.88289387119057     -0.03498978765064
  H   5.20054375639304     -5.75820679852947     -0.13806665953848
  H   7.37314857094275     -3.74344806492017      1.47166025263257
  H   9.54002156287213     -2.80140693246647     -0.17138169706466
  H   6.89474755123310     -0.04539453162721     -0.10339038383657
  H   3.40872810137700      1.88689271613097      0.08326105078095
