27
Coordinates from ORCA-job 12557optt
  Br  5.90140967314850      0.22349088348166     -3.59269586631324
  C   5.92507716628265     -1.00783039627902     -2.14446178501548
  C   6.20871268754262     -2.30856203198773     -2.34555417756640
  N   6.04397930556576     -3.19074973302465     -1.24276070217335
  C   6.74443538107938     -2.69083406472850      0.02123868460087
  C   7.11124266225158     -1.24716440602197     -0.05209764221705
  C   8.42252047971854     -0.72827860449169     -0.05768434756646
  C   9.66954821982327     -1.37932403392385     -0.19221071209888
  N   10.88324775222137     -0.85955917927745     -0.15906896923049
  C   9.65024766490134     -2.84469610263813     -0.54944254672221
  O   9.93714712123353     -3.75633750307458      0.19672096155714
  N   9.17207900564866     -3.11583093977461     -1.81918945714368
  C   9.12319399790762     -2.23872507149126     -2.91073704048009
  C   8.09850560442502     -2.17675484028857     -3.75871848964516
  N   6.83793973179875     -2.81799336902223     -3.48801196064353
  C   6.10467088149856     -0.42911833444049     -0.77503236193021
  N   5.62400298071657      0.71295679806503     -0.46968054312487
  H   5.05754424487719     -3.20523615997393     -1.02100144138465
  H   7.58303035706739     -3.33904847644656      0.25123586782523
  H   6.00674347899159     -2.85309434558326      0.81338891450639
  H   8.49611086644956      0.35859143070926     -0.05526986705687
  H   10.80497220166577      0.13325295030247      0.06685425671965
  H   8.89614879969808     -4.07728516566471     -1.96155279557487
  H   9.99916941265585     -1.61582861402077     -3.05339216280027
  H   8.14714590479913     -1.53621507073178     -4.62821557022581
  H   6.88416251738537     -3.82622327747196     -3.43347858749279
  H   5.95101190064618      0.95339765779932      0.46681834119709
