23
Coordinates from ORCA-job 12562optt
  Br  2.36376645996847     -1.73664638711962      1.70532321047643
  C   3.31992558672770     -0.46166359971311      0.67460111606685
  C   3.07393509856638      0.85052037395532      0.80542839952095
  N   2.24421558386147      1.49585528547704      1.72484209242836
  C   1.16406949645340      1.82278281150937      1.10219303218357
  C   0.84688547102770      3.22630280038688      0.97188187837417
  C   0.97874532495329      3.48130971748964     -0.34316245230451
  C   1.94831656279952      4.49143378311687     -0.87393773709377
  N   1.50849319002720      5.48413292996189     -1.57245942728254
  N   3.23396439642179      4.21449877030438     -0.57057171095776
  C   3.77222128761028      3.16025370265718      0.06605605296562
  C   4.86673562568273      3.34905086051946      0.92413810238832
  C   5.80059632908330      3.50361486955488      1.68176315433542
  N   3.53183484241022      1.74254912729793     -0.20373984130751
  N   3.38404268575483      1.37869763461361     -1.51687225377384
  C   3.61938000456255      0.17590955291031     -1.83320825562801
  S   4.27853848823488     -1.01210636705935     -0.68245561018391
  H   0.74401136563193      1.16867369090450      0.32570681523281
  H   1.23122876887584      3.91260298449806      1.71574815402321
  H   0.70567027161482      2.71190704203129     -1.06297390895476
  H   2.31850133185631      6.02373851712994     -1.88124987124308
  H   6.60098625528573      3.64318166744278      2.36496507480213
  H   3.43893557258959     -0.14059976786929     -2.85301601406817
