26
Coordinates from ORCA-job 12568optt
  Br  1.05498597515476      0.20511234636399      0.08519206858681
  C   2.93454735138695     -0.04861586140114      0.18563722337287
  C   3.53545028919156     -1.18805092258363     -0.20082075909095
  N   2.79270138808102     -2.25202480946095     -0.77757804939223
  C   2.21940235472082     -3.22674688668388      0.13416138263355
  C   3.20799715011793     -4.31901225373028      0.52623453165759
  C   2.70986376600209     -5.15371434520372      1.70991280678892
  C   1.49213397936103     -5.90012003845030      1.40538503093977
  N   0.54703965617614     -6.49905775506165      1.15367152879880
  O   4.42948668466234     -3.75501775121688      0.94241773694159
  C   5.36609459821581     -3.47462693107882     -0.05933743238381
  N   5.71971500091137     -2.27908396012667     -0.41135836331716
  C   5.00435499245140     -1.16181548968386     -0.18053817514474
  N   5.67242826114514      0.00276651505704     -0.06936447887069
  C   5.02863563085980      1.12596573540560      0.30067787002094
  N   5.52483334496177      2.31396287045568      0.42765091110619
  N   3.65474145355667      1.02052012094223      0.64180470746759
  H   3.34793914978141     -2.70612290503522     -1.49330387828911
  H   1.33081968918684     -3.68108335956955     -0.31514190974807
  H   1.89858756881477     -2.69028491821575      1.03056952579657
  H   3.38394580617716     -4.98153115089808     -0.33190483992063
  H   2.52343863156719     -4.49185633572921      2.55802806801081
  H   3.48765524200916     -5.86002496372634      2.00182693464247
  H   5.98382889773708     -4.32859868896429     -0.31527965084149
  H   6.51478555892559      2.25051970996104      0.20919401519689
  H   3.19558757884410      1.89254202863470      0.84426319503751
