23
Coordinates from ORCA-job 12563optt
  Br  1.90127247651919     -1.76831707650441      1.34342430105252
  C   2.78467099104968     -0.07576859799509      0.94723401630282
  C   2.00118796351500      1.04161219494499      0.65690703231828
  N   0.78687325467253      1.35022203870083      1.30315789560201
  C   -0.15748030395764      1.55478384299851      0.46276869391852
  C   -0.96844168386351      2.74369450364238      0.62550553892588
  C   -0.90108960857899      3.49789237870764     -0.48359438711892
  C   -0.42827588882289      4.91573864764843     -0.43340411547811
  N   -1.07712283558718      5.86568659893424     -0.98472387940490
  N   0.74587546058823      5.04754293815115      0.29961984952697
  C   1.66239535663672      4.11732461943675      0.31649188267592
  N   1.90151167135533      3.15612037118815     -0.57788892255177
  C   2.45911011514826      1.98825325771756     -0.27192532405794
  O   3.57011715606833      1.66764166388990     -1.05955313442799
  C   4.34486976198814      0.58987210793166     -0.82675256286510
  O   5.33970262811289      0.39760680405607     -1.47923192589308
  N   3.95218498283483     -0.22205127762271      0.19665717014175
  H   -0.11204687687096      1.13885108395269     -0.55023346254637
  H   -0.96372100292028      3.20400050645894      1.60614916364024
  H   -0.79855160455805      3.01555260756461     -1.45085329257554
  H   -0.54052284650126      6.72535750223610     -0.86047226492262
  H   2.36154136527179      4.18615633719693      1.15774177360355
  H   4.59593946789981     -0.96577305323538      0.41297595413387
