27
Coordinates from ORCA-job 12569optt
  Br  1.47711302987788     -1.45694436242698      0.33580724679394
  C   2.73722479926088     -0.05275641552256      0.31293186546444
  C   2.48495343691055      1.15655011455854      0.90110833565872
  N   1.19990150431902      1.46342918329417      1.40322107378485
  C   0.25738454007361      1.82657988219492      0.33028150213083
  C   0.74881278837888      2.85139589636963     -0.70912363464418
  C   0.91545796155910      4.30789864497303     -0.20088398659884
  C   2.26851473918751      4.93850267614983     -0.45381960572441
  N   2.40904491304072      5.82324184735712     -1.34910496330246
  O   3.32837249901189      4.55180435856844      0.30653106923369
  C   3.07769810389268      3.50873082163689      1.22926703206769
  O   2.50830052737398      3.79874312117716      2.27101001878373
  C   3.45659208589506      2.20587134216279      0.76613859523499
  N   4.58430683544499      2.07787535989611      0.03376018237918
  N   4.76769950380052      0.83043069870554     -0.49782969640896
  C   3.97508009671683     -0.29196326817281     -0.40672265984428
  N   4.27904236502710     -1.43193176395771     -0.92706988746683
  H   1.28131529051148      2.23032888621317      2.05978188277497
  H   -0.64402625966368      2.20537433995990      0.81927356621373
  H   -0.02114167237551      0.91322600421643     -0.19872552447351
  H   0.01501834471385      2.85447441171109     -1.51837895544036
  H   1.67835987056973      2.49129309038110     -1.15445636304122
  H   0.70884954789672      4.35807364626156      0.86971449182086
  H   0.20632209602975      4.95785364107296     -0.70794777443342
  H   3.38543624035763      6.11754349762970     -1.37683025572330
  H   5.61367834376534      0.74822872271681     -1.03529830824645
  H   5.18468846842344     -1.37785437712689     -1.39063524699338
