23
Coordinates from ORCA-job 12561optt
  Br  2.55064118848122     -1.49757672429503      2.00474645422804
  C   3.09263603665200     -0.33117628797721      0.63393258420385
  C   2.65548215231709      0.94715997677060      0.55553109607381
  N   1.67499298676075      1.41461489108520      1.44763685914464
  C   0.54009444443764      1.53381133684197      0.88744883559681
  C   -0.29463555248290      2.64512630201150      1.30497670884771
  C   -0.39930166640452      3.48959828658107      0.27634920247581
  C   0.02672067324882      4.88815380249745      0.48380287346355
  N   -0.63773417917877      5.69241088238613      1.23412402732553
  N   1.19514418577719      5.17273090484819     -0.14862432954023
  C   2.13951400171111      4.46120131619805     -0.75754441349812
  C   2.83386390664758      3.20492206063348     -0.86868249866110
  C   3.14404940843286      1.89480758091360     -0.40537312208278
  S   4.71455801726049      1.41484908419093     -1.13641007720539
  C   4.75605463860502     -0.33786995723382     -1.09241276264201
  O   5.51776995262993     -0.97183589396375     -1.76155238016702
  O   3.92333802147768     -0.98300041695350     -0.24652609638457
  H   0.33246207577627      1.08700145414217     -0.09171524574652
  H   -0.22335069681305      3.01136443029313      2.32063848736512
  H   -0.29973454521895      3.11077148041888     -0.73801017041964
  H   -0.10093086987755      6.55732490536117      1.30865726608640
  H   2.66588916009496      5.13154992315128     -1.43931362154655
  H   3.54447665966507      3.40306066209842     -1.66667967691733
