25
Coordinates from ORCA-job 12565optt
  Br  1.09959793010446      0.13712000751532     -0.77616037079901
  C   2.81201196295253     -0.06051665002200      0.08383890421409
  C   3.48679770296738     -1.29405059873486      0.07429167433628
  N   3.01376032522298     -2.57028877761287      0.16764988440774
  C   4.10663924405061     -3.33445034876071      0.20781141211818
  C   5.31942908076841     -2.60057285956403      0.15554149219918
  C   6.71578303434957     -3.11947038463942      0.18208613692096
  C   7.47165838140137     -2.89417330617278     -1.11032478816251
  N   7.03732782846167     -2.36477354222298     -2.17218223376553
  N   8.83308215836379     -3.27679946588447     -1.15529723298220
  C   9.59936802168837     -3.95039273404237     -0.25543195879792
  O   9.27239313661765     -4.35741481911793      0.83130433014177
  C   4.88896661134319     -1.27882241560996      0.05871306525232
  N   5.58419668640961     -0.06709739309145     -0.05229644143263
  C   4.91280321077265      1.11309724904699     -0.27260615356566
  N   5.42677743476654      2.23622977693614     -0.58724268008239
  O   3.57380985029290      1.08945032710679     -0.08085527654373
  H   4.03096695074355     -4.41327182687182      0.28040900993148
  H   6.72905557213766     -4.18964777516762      0.40061512429102
  H   7.31611453482706     -2.66967634159462      0.98091860433402
  H   6.05109007462674     -2.12949255316358     -2.04720095687545
  H   9.26532086253583     -3.04721083853883     -2.03911937964545
  H   10.62160087806212     -4.09553220763675     -0.64724679025443
  H   6.53920107252580     -0.08551053584436     -0.37185746695646
  H   6.43524745400702      2.14726801368830     -0.66535790828365
