22
Coordinates from ORCA-job 12570optt
  Br  1.58371370442848      0.20671568744320      1.82755334741096
  C   2.96108738587734      0.11251487845907      0.49739339488990
  C   3.66181998501526     -1.10152763865713      0.31722993090604
  N   2.98420686156972     -2.30773470637583      0.63860817088012
  C   1.59654435062885     -2.45821731305545      0.19389073418189
  C   1.42355171894454     -3.59411679527624     -0.71741263943441
  C   1.27535040926252     -4.51372590978429     -1.46922186085548
  C   3.57026281422827     -3.41322147683215      1.20979288150811
  N   2.97822879606094     -4.39610111924142      1.76238500932906
  S   5.32402225502715     -3.58749010071697      1.08924515504645
  C   5.85268441674767     -2.27032981976902     -0.00568608958841
  O   6.98846469674601     -2.35318535244151     -0.41362489477121
  C   4.96698100735150     -1.12405206628931     -0.20706981598443
  C   5.55093907508630     -0.01017673146280     -0.79363680304470
  S   4.68115838277994      1.41953751466535     -1.21147043034098
  C   3.25409565483170      1.37000976147333     -0.08179289545930
  O   2.65774413022553      2.42143707465629      0.06419111729843
  H   1.32460175715913     -1.54297765223018     -0.32663439841922
  H   0.91230917332695     -2.54806503170603      1.04057702773563
  H   1.15953201904283     -5.33417067898120     -2.13466423097390
  H   1.97361539290557     -4.25427553369955      1.82128847108325
  H   6.60308601275375     -0.02184699017814     -1.03594118139782
