18
Coordinates from ORCA-job 12571optt
  Br  1.24278273839276     -0.20369486037703      0.46133609841100
  C   3.05642171436750     -0.26724481934512      0.03950690933840
  C   3.77244184376257     -1.41202157241364     -0.05914006420218
  N   3.37194223578876     -2.67498579872707      0.10867685253356
  C   4.42009601051220     -3.52004776345721      0.02952196121567
  C   4.37917459206770     -4.89216520972481      0.01056841416099
  C   4.36031852009308     -6.11350340812776     -0.03041077367893
  C   4.31339257109592     -7.47330994135024     -0.09987288199136
  N   4.26552272537589     -8.62903980583978     -0.15965014335790
  S   5.96611892471404     -2.66977811526921      0.05903504909081
  O   6.47898899221523     -2.49336774286819      1.39084585301536
  O   6.89933493765077     -3.08827360611999     -0.94456004030835
  N   5.15155968982782     -1.26413151280212     -0.43347084231772
  N   5.81714561227737     -0.07190024813391     -0.15679470036546
  C   5.07762601851876      0.95666123763824     -0.09808631604106
  N   3.69687328070598      0.96931915081087     -0.24575169272719
  H   5.55425718526401      1.91675950304348      0.05532842564526
  H   3.23700240736952      1.77772451306352      0.14491789157909
