26
Coordinates from ORCA-job 12572opt
  Br  0.34826428344380      0.35116620269992      0.25609656523584
  C   2.83141830346204     -0.11728987871410     -0.34017875750324
  C   3.52647212277717      1.07845882019494     -0.27896076018908
  N   3.00521983074010      2.36245704391307     -0.45254436776458
  C   3.94029825272663      3.29383776094282      0.17162396262018
  C   5.31059035547867      2.59392128768189      0.02844393673400
  C   6.28118071098409      2.92514391913282      1.14668204210891
  C   6.73468928822396      4.35398934071262      1.19680274259386
  O   6.46788892378582      5.19694227433344      0.38390652132617
  C   4.89857604484562      1.13979876924620     -0.00860545541155
  C   5.63957642169449     -0.01600226951118      0.17954904443372
  C   4.95601645792231     -1.22240977526918      0.11230811062486
  C   3.58008112149844     -1.24446853643411     -0.12891001744645
  O   3.03752423230681     -2.52234540426979     -0.13340749357206
  C   3.93596549280984     -3.50271102376149      0.08971742252197
  N   3.67585501090572     -4.73614008443754      0.12921768601424
  S   5.56617687128736     -2.85534208894449      0.32144193482256
  H   2.02526523803141      2.42721039589852     -0.19766149168087
  H   3.71855773452686      3.42370327169745      1.24252073497724
  H   3.92268800363602      4.27123414971586     -0.30676338185415
  H   5.75922313471940      2.88733675792452     -0.92735566465255
  H   7.19204133796302      2.31611034638330      1.08126576444376
  H   5.84448690494042      2.67744766983648      2.12158446755213
  H   7.37519903363379      4.61234955828249      2.06601938468275
  H   6.70262487544176      0.00984776226729      0.38846614639691
  H   2.68012001221434     -4.87924626952177     -0.02925907701457
