25
Coordinates from ORCA-job 12578optt
  Br  0.92747254679356     -1.87707909679707      0.54926660681769
  C   2.72005341937338     -1.58481620520675     -0.03871317768382
  C   2.92658419547664     -1.30802942456065     -1.40520306901822
  N   4.22027027337735     -0.83946576763938     -1.69907152535637
  C   5.29585932675188     -1.16498185632912     -0.90112896176713
  C   5.12372431764141     -1.79196254332736      0.27553992823427
  C   6.20894277366113     -2.59469320822308      0.92906498566525
  C   5.91080628189578     -4.10658218451536      0.93222067987520
  O   5.81537386361990     -4.72244212150016     -0.37616701439579
  C   4.57456276031064     -4.61796752105279     -0.91230632189102
  N   3.48681666380221     -5.21014627681036     -0.52227516963078
  C   2.45680881501730     -4.53285583131477     -1.16246437643039
  C   2.96551192922538     -3.53343042608001     -1.94265806028399
  N   4.33692071717982     -3.68589842726837     -1.86215913750985
  O   2.47238049071280     -2.34740609396909     -2.38605283368479
  C   3.76149289806518     -1.85087484027845      0.88427755170719
  O   3.64346110919915     -2.16321004425716      2.08199850505012
  H   4.36052572656577     -0.28697206606623     -2.52721341753054
  H   6.27867421561344     -0.99771559075072     -1.33590101372802
  H   6.30226944838881     -2.32228839357948      1.98483183884177
  H   7.16770167028219     -2.41289452631793      0.43417882083155
  H   4.98103922861571     -4.28894636708135      1.47193687384619
  H   6.72664673541452     -4.63344305396092      1.42777132308561
  H   1.42331624349639     -4.72995744947873     -0.93807017943992
  H   5.00378434951952     -2.99994068363462     -2.16170285560421
