25
Coordinates from ORCA-job 12573optt
  Br  1.12316853820596      0.01804484774624     -0.02838954033165
  C   3.01170748619580     -0.00987425200864      0.04740987131102
  C   3.65461994831694     -1.22974625127436      0.03749504851830
  N   2.92032588700416     -2.37523921572355      0.00586273927821
  C   3.58251078049114     -3.52737923327045      0.00499066910032
  C   4.96042317495411     -3.63911207867092      0.03476317612042
  C   5.76422706038859     -2.48502750978309      0.06145842895723
  C   7.19577859111769     -2.63415023391517      0.10411238145901
  O   7.79639674946768     -3.70436570757204      0.11385454481056
  C   5.11666800061546     -1.20199250949607      0.05404009422446
  C   5.74887996138218      0.02401465723875      0.04827588952245
  C   5.06758809155073      1.27411770143929      0.05505437616119
  N   5.59182301099398      2.46431390943956      0.03282802265782
  N   3.66291422133160      1.20136831164398      0.10725086852904
  C   2.95892370400855      2.45459480765468      0.15456305155522
  C   2.52274004752730      2.96383808700628     -1.19522577074326
  O   2.70619884641156      2.41273999780275     -2.23965429823714
  H   2.96788814515767     -4.42300007853227     -0.01743662996420
  H   5.44416556286365     -4.60641585248922      0.03918059208233
  H   7.78503494408204     -1.70097895697809      0.13349626101860
  H   6.82650462621650      0.09272847751519      0.02684248900067
  H   6.60172823541251      2.37507314417404      0.01826030498545
  H   3.64456642715613      3.19808506492010      0.56723123205541
  H   2.07826344181377      2.39085330568246      0.79516533748379
  H   1.99095451733422      3.93850956745055     -1.15042913955526
