26
Coordinates from ORCA-job 12582optt
  Br  1.08121758480075      0.25537304981262     -0.18490060652228
  C   2.97131449779832      0.06205010202824     -0.13686780221741
  C   3.77372532284457      1.21764113001374     -0.08303244049912
  N   3.23114504421974      2.50698483357161     -0.08739759634359
  C   4.04078016564633      3.64031152475511      0.05088993925224
  C   3.31006414443295      4.94309705666428      0.05433806320656
  C   2.57683956879317      5.19121356779982     -1.26166735599558
  C   1.82514391826143      6.48359081438662     -1.33456035220168
  O   1.74970164266807      7.29811739566319     -0.45336903839146
  C   5.39034573647210      3.49414652145061      0.09038165057364
  C   5.99716965677077      2.21448246911677      0.04192588065763
  C   5.14823613701935      1.10275314362870     -0.03917640903793
  O   5.71305727581221     -0.13801345344749     -0.07029707411117
  C   4.99517720665991     -1.30984221600171     -0.10880475217438
  N   5.62058600112351     -2.41202323225671     -0.12247176875104
  C   3.48321755896324     -1.24748396083489     -0.13738673933185
  O   2.83416128914452     -2.29831128772069     -0.16204440654656
  H   2.26116669412388      2.56957533901992      0.18764255505775
  H   4.01642702279653      5.75273995242134      0.23899980339870
  H   2.57619408772733      4.97690382301131      0.86927843422083
  H   1.86529246836836      4.38508883476454     -1.47779948497856
  H   3.27708944179520      5.17134513260775     -2.10560777798020
  H   1.31458831692559      6.67130934196183     -2.30219968922377
  H   6.00038493942333      4.38671051896146      0.15345784065356
  H   7.06653222086143      2.07761042199954      0.08821859379996
  H   6.62244205654738     -2.22237082337756     -0.09854946651428
