25
Coordinates from ORCA-job 12585optt
  Br  0.90817386738223     -0.17880828703038     -2.28509650871979
  C   3.31052561228435      0.02359883715951     -1.52494089247029
  C   3.66421513878315     -1.08032200508018     -0.81181651938102
  N   3.06940141620468     -2.34741495183240     -1.07364089723541
  C   2.14777463077022     -2.87041754687402     -0.04437818129067
  C   1.85867978305012     -1.97716122821135      1.07908955156362
  C   1.63992106082211     -1.28552164222068      2.03166060051574
  C   2.73566586526453     -4.18292101165721      0.48189314997872
  O   2.13367588558968     -5.21762400668980      0.34568635916823
  C   4.07823215179266     -4.16035731428944      1.18874538498979
  C   5.19892649369131     -3.29559639992895      0.59517753158565
  N   5.14106914071962     -1.88975858040055      0.94364400389066
  C   4.61950475334756     -0.86673233958221      0.21136891083294
  N   5.04742090750979      0.33713106417387      0.56009528961876
  C   4.62331345439461      1.42704588225966     -0.10660189178339
  O   4.88921373396095      2.57482057640075      0.13099677246228
  O   3.80156579007151      1.20944559583470     -1.25087283185608
  H   2.52823622689299     -2.23043379501809     -1.92491132323793
  H   1.20229452002941     -3.12793115147652     -0.52523910928398
  H   1.43847410865854     -0.63746552390603      2.84993050298684
  H   4.40123427714313     -5.20074668751972      1.24282238020936
  H   3.88592701781644     -3.81683820601345      2.21044131791299
  H   5.23766739700956     -3.41111120839708     -0.48556179949234
  H   6.14186825736746     -3.67110221967116      0.99641138973957
  H   5.78201850944321     -1.55777785002923      1.64709680929575
