22
Coordinates from ORCA-job 12593optt
  Br  1.52136810619595     -0.21976936560400      1.98228606175993
  C   2.75099387159464     -0.05751671866925      0.51590739536783
  C   3.46831697448012      1.13079064046910      0.35393993553122
  N   3.10908696259911      2.43856814536765      0.67929248491639
  C   4.07926299548231      3.16034770050743      0.24990839521664
  C   4.20334384211634      4.64007070869254      0.35081003649582
  C   2.99965038168279      5.20463700908544      1.08457093308119
  C   3.04307586771819      4.91681515879617      2.56053018401973
  O   4.01146249919075      4.62167385397892      3.19550640412356
  C   1.74618408435354      5.13564890402639      3.26471812620108
  N   0.75602576311315      5.37779618563761      3.78787601595362
  O   5.08762331850793      2.48019424894491     -0.34735161766329
  C   4.72005799199144      1.15315168496719     -0.26357362263500
  N   5.53598515655667      0.22746604385775     -0.71176531596197
  C   5.14837094555169     -1.06597676590218     -0.61043349742676
  N   5.84387933623522     -2.10041692449685     -0.90155981579050
  S   3.45989964745893     -1.53152984345304     -0.08282142627081
  H   4.27091858628857      5.07741756782599     -0.64824801962378
  H   5.12433107132664      4.89897358928566      0.87889951371110
  H   2.06935921714685      4.79585137196294      0.68679568600555
  H   2.94454668861057      6.29487929052917      0.99170836844745
  H   6.75325669179847     -1.77607248580959     -1.22999622545899
