24
Coordinates from ORCA-job 12591opt
  Br  0.56006729689426     -0.72511055229025      1.16082579226092
  C   2.10759013243182     -1.63961084950849      2.12302665945420
  C   3.30354780347547     -1.69621561337735      1.32661536630125
  N   3.41993843682349     -1.19524924547359      0.07830090034618
  C   4.67278480172097     -1.45826328708287     -0.30084115289511
  C   5.41528702861920     -2.13979630658836      0.67881935662592
  C   6.82314194223641     -2.62616276404254      0.56971624765846
  C   6.90500383428846     -3.96796120888167     -0.15861916413959
  O   8.30021766289477     -4.30640272473911     -0.26594177191116
  C   8.60044338174613     -5.40112700597291     -0.98645766692209
  N   9.76444618060202     -5.85140453619158     -1.14169906017155
  C   6.16446119683126     -5.03289031974748      0.52503935394658
  C   5.55984444858732     -5.90200054404236      1.08277295749564
  C   4.51913894541076     -2.29251546904673      1.74001368285725
  N   4.73716603522853     -2.88342147119873      3.00911332177233
  N   5.71394013125163     -3.40146253006287      3.40031319600228
  O   1.88415406097187     -2.03100103926850      3.21557077029493
  H   5.03342468340146     -1.14591035173463     -1.27420775567418
  H   7.27509760866243     -2.74914515010588      1.55430672457684
  H   7.43120002468187     -1.92263729172917     -0.00420236190075
  H   6.49445013562562     -3.84839123869900     -1.16667735315809
  H   7.74571233799669     -5.89453717510722     -1.44974560894924
  H   10.43179237304158     -5.27619174705645     -0.62562536078292
  H   5.01214951657519     -6.64859157805181      1.60558292691182
