23
Coordinates from ORCA-job 12609optt
  Br  1.41128725281611     -0.18845009061609     -1.47165523297077
  C   3.15356519863625      0.00260807218516     -0.78119436040338
  C   3.78396761296239     -1.08951665349542     -0.15172474293521
  N   3.30154847449027     -2.32520673588248      0.03878716315155
  C   4.17057820653081     -3.14045447063665      0.60536243120151
  C   3.79310493361465     -4.48350463422008      1.14111776458983
  C   4.85997619441678     -5.48168217438656      1.04490363557276
  C   5.74607428659688     -6.28614584668045      0.97383369916707
  S   5.70977906257770     -2.37696113097896      1.04727124695008
  C   5.12121052493486     -0.89416549559894      0.34946425116601
  C   5.73327250676630      0.31059828542393      0.23756664110791
  N   6.99910238041060      0.53700006259678      0.79384515027533
  C   7.80342865268864      1.61825938207900      0.67215463958634
  O   7.58178300146268      2.61722209043286      0.01638276659740
  N   5.07781669343045      1.35254150544271     -0.36944042458693
  C   3.78468286408988      1.26383101544572     -0.93681863507459
  O   3.34359286474336      2.26810930601426     -1.49323758803327
  H   2.92561779188958     -4.81703851712807      0.56822591010165
  H   3.47405375988046     -4.42673019563822      2.19312920074266
  H   6.53735673794517     -6.99158830832281      0.90034295492831
  H   7.34113775105492     -0.21196414488530      1.37748011570858
  H   8.72885827982658      1.49717150937602      1.25767253897831
  H   5.57220496823455      2.21806716947365     -0.53146912582119
