22
Coordinates from ORCA-job 12608optt
  Br  1.34917220350236      0.52799150088493      1.15468303017821
  C   3.11727106214756      0.15812364314627      0.61177303620633
  C   3.67040870947325     -1.05162477470942      0.41172779142533
  N   3.00738935940931     -2.29788024504826      0.38427608147346
  C   1.62905204488260     -2.46896873862659     -0.05686592687493
  C   0.67024888613156     -2.71759797910631      1.02469535515863
  C   -0.12469364627717     -2.94387810418780      1.89045553521891
  C   3.71650989363503     -3.46914675851229      0.53250374995978
  O   3.17464866739538     -4.54917894044868      0.55652388861555
  O   5.03897985544153     -3.37263794347065      0.66029573636366
  N   5.77132517917740     -2.24942265504621      0.15826214581140
  C   5.09477564957683     -1.11817614885603      0.15680810682663
  C   5.80754773537554      0.08745096432077     -0.16131754346988
  N   7.05452489356176      0.16225032787922     -0.54368294183503
  C   5.08110856651138      1.36077528563182     -0.01668522985712
  N   5.53154465660844      2.51955499129430     -0.24980429412822
  O   3.79401908022860      1.31259208448231      0.48393210220860
  H   1.60743225425691     -3.33186110171698     -0.72349886461627
  H   1.33597523475749     -1.58442184002254     -0.61917080150736
  H   -0.81881015667760     -3.14023370297048      2.67092243446754
  H   7.43984719491636     -0.77979387672997     -0.58092022497103
  H   6.49072267596544      2.38808401181258     -0.57291316665419
