23
Coordinates from ORCA-job 12606optt
  Br  2.50489857191569     -1.54043713674698      0.65156377860232
  C   3.16103553996749      0.26760591905317      0.63688235703303
  C   2.65505665049577      1.23971272409036      1.51651435492040
  N   3.59460480755330      2.32308252668197      1.69719751051014
  C   4.89424394492164      1.79972899700700      2.09663013898379
  C   5.16696537838986      2.33825505213122      3.44472135584316
  C   4.51902325185059      1.71688604032094      4.43356900285997
  C   3.47792119614722      2.41498332840999      5.28824117959267
  O   3.35693817113713      2.39645172131546      6.48244682601393
  N   2.56913613049820      2.91478770201339      4.35557895913819
  C   1.16767035799025      2.61472455709571      4.33719094820363
  O   0.44952233703869      2.88884984652667      5.28416766019900
  C   0.72725884608615      1.90361034120066      3.15814486767672
  C   1.38601229585733      1.22556390647865      2.12354541484759
  C   5.31467490343103      0.77689704083228      1.36892045193666
  Br  6.92191416028541     -0.17332824812401      1.66481692779602
  O   4.54116894881962      0.29479192504602      0.36452704397967
  H   3.67043050455050      2.87911052594660      0.85106798178525
  H   5.31068470120845      3.41399723596244      3.49812489903839
  H   4.28288290928410      0.66054646189466      4.31706297918224
  H   2.93067132080857      2.88033883636789      3.40689864257145
  H   -0.32905745901292      1.67582413051776      3.23743789353238
  H   0.74634253077588      0.47701656597814      1.66274882575335
