23
Coordinates from ORCA-job 12603optt
  Br  0.79324853022007     -0.43041470560464     -0.98503831371974
  C   2.94724509362551      0.04205328950899      0.11269547945796
  C   3.62963310132245      1.20039251965161      0.12321655722781
  N   5.04505023901827      1.19355622410368     -0.12209126258525
  C   5.78366707865001      2.43779825193678     -0.07535073052654
  C   6.24631098488782      2.77591768583158      1.28209569423124
  C   6.59466192747851      3.03925924277282      2.39625669984350
  C   4.98525251019231      3.62289587726060     -0.62105690263797
  O   5.54146382885840      4.55764923830409     -1.15166485416564
  N   3.65340953352919      3.56012593706933     -0.40425144304025
  C   2.94777747977956      2.48276554538799      0.19905247516617
  N   1.78956921069290      2.63327494401471      0.69620785125270
  C   5.78659098477602      0.02805503777205     -0.08370916319938
  N   7.05281564966241     -0.08538678473565      0.01528267174412
  C   4.99197314437019     -1.26144311937735     -0.21439417058558
  O   5.52721243264855     -2.32810694782728     -0.40165275549618
  N   3.63986751352638     -1.12221754254627     -0.08391512061323
  H   6.64723579112674      2.35749147685663     -0.73807819228169
  H   6.89856191840936      3.26432968092069      3.38992497842433
  H   3.12922573790544      4.39000513688521     -0.64397189884931
  H   1.45298676301067      3.58647479563109      0.57361798116228
  H   7.52251406216733      0.80134642622816      0.16997780974194
  H   3.09472648414177     -1.96682221004484     -0.20915339055133
