21
Coordinates from ORCA-job 12611optt
  Br  1.14347134605843      0.10157477022599     -0.53349814011069
  C   3.03009423101776      0.08109512420987     -0.29843834915478
  C   3.72089183206564      1.33093335397403     -0.20916910626031
  N   3.09827486164530      2.51901574566487     -0.18324453470548
  C   3.72920987610763      3.64958604382373     -0.11416518383043
  C   2.96316696710895      4.94587024763897     -0.01644456595750
  C   2.53070126201981      5.46645594641706     -1.31642027743002
  C   2.16828820670247      5.87707956018297     -2.38259395060657
  S   5.48022086214092      3.74646187097430     -0.22320388849758
  O   5.86310834977886      4.01154308494509     -1.58946178664850
  O   5.97708019231264      4.68061221882057      0.76067158727717
  N   5.95187775547807      2.25337999720718      0.16821024716879
  C   5.13151310082377      1.24926152083560     -0.00220481146856
  N   5.66352237334732     -0.01407674226990      0.09661006258791
  C   4.89436121710524     -1.16049151982674     -0.02369667596030
  N   3.60608615432164     -1.10429993429871     -0.21827957270068
  H   3.57749756542513      5.69500101133421      0.48753253169018
  H   2.07842230101284      4.76220171498565      0.59709169051482
  H   1.86574156805418      6.22384131001129     -3.34009151316456
  H   6.65850107470641     -0.06464459418383      0.24642576738084
  H   5.40896890276692     -2.10640073067225      0.05037046987627
