28
Coordinates from ORCA-job 12614optt
  Br  1.10069920449889     -0.15001570429492     -0.16815515807396
  C   2.98351243221744     -0.11114980172761     -0.02803734777864
  C   3.67160865692229     -1.29402623628044     -0.00331570929553
  N   3.08393704348468     -2.52030745720046     -0.02583090315591
  C   3.83598149203000     -3.74325239716031     -0.25825149943264
  C   5.14971122969008     -3.64811580817362      0.48876368624603
  C   5.92596792256807     -2.42136675915834     -0.00968715237110
  N   5.04463607243004     -1.23790800396508      0.09400622051978
  C   5.63839602396006     -0.00994970198743      0.12518361114587
  N   5.05030116481718      1.12504696955402      0.13394903188438
  C   3.64345369666279      1.17186581128763      0.06827724728809
  N   3.00168440813851      2.28020076148474      0.09357317421665
  C   6.44944202406689     -2.56187571500539     -1.40796980955716
  N   5.73163877355098     -2.44540072965842     -2.53130615162296
  N   7.63976447279744     -3.29394052647495     -1.50975862759239
  C   8.37152414376894     -3.97892011416655     -0.60250229299817
  O   9.49961009612330     -4.43667106472786     -0.82602079144034
  H   2.11139975963221     -2.50303274791051     -0.28748935814666
  H   4.04029825336499     -3.88999789720141     -1.32349506065445
  H   3.23538577457423     -4.57500664172271      0.11224892623928
  H   5.74790252325158     -4.53857494800642      0.28896799445031
  H   4.96985026145000     -3.58326890205857      1.56733578438608
  H   6.76061083119805     -2.24398045308852      0.68052967335007
  H   6.72347527214270     -0.05715106080071      0.14408344064498
  H   3.68562149220227      3.03142382291443      0.15678062554011
  H   4.95457708056133     -1.80542192584829     -2.38211022246899
  H   8.01427997369079     -3.30534880634027     -2.45124941494722
  H   7.89972992020416     -4.07285396228197      0.38548008362449
