27
Coordinates from ORCA-job 12615optt
  Br  1.04919392355862      0.12396879064888     -0.29460672842096
  C   2.93535491719464      0.07347356170476     -0.10946099887939
  C   3.55786092855416     -1.13392870843577     -0.02416788773796
  N   2.85257117127300     -2.32435559122970     -0.01842324599881
  C   3.50677726108081     -3.57577122497156     -0.31246750410439
  C   4.73728011444279     -3.64220786978441      0.56480885656119
  C   5.64438292886191     -2.47924478929194      0.21698403117523
  N   4.93021195043675     -1.20668151522543      0.11622970985886
  C   5.68305491361133     -0.01681285225464      0.09221067660982
  N   7.03958636549998     -0.19454791023994      0.17700135827416
  C   8.00217103361181      0.88094677053339      0.28555492528364
  O   7.75991485017703      1.91641827295961      0.95155737161156
  C   9.22446303188103      0.54422703942499     -0.32816322319836
  N   10.23334379431006      0.22465191762606     -0.82779273246263
  C   5.07050494983212      1.19418652279977      0.02164634421639
  C   3.63954332797136      1.34176861545852     -0.05703233939672
  N   2.98739771849353      2.45607753985583     -0.11226782732356
  H   1.90312794771405     -2.21248440990981     -0.33711961773513
  H   3.79819754782888     -3.66478582095356     -1.36928990022602
  H   2.81129436895018     -4.38420923479683     -0.08717183723708
  H   5.28745639421261     -4.57176047058923      0.41628356954013
  H   4.42858752012515     -3.58386543109260      1.60981308746353
  H   6.14349844097486     -2.69320745120852     -0.73703351523336
  H   6.41682185403414     -2.36541408244968      0.97657228424627
  H   7.41756977210172     -1.00873522081388     -0.27939042379012
  H   5.69983031820567      2.07101462021282      0.04854711249874
  H   3.65000265506167      3.22727893202291     -0.06782154559504
