28
Coordinates from ORCA-job 12617optt
  Br  1.03561508595419      0.16812059157450     -0.06890690954183
  C   2.93104041196290      0.12498724378799      0.00250979040139
  C   3.56709386688166     -1.07532206104587      0.07857096776903
  N   2.90072955209633     -2.28668726000155      0.17343132932560
  C   3.56581084026845     -3.51305934385436     -0.21066826343431
  C   4.92628369738466     -3.53105967061287      0.45836286313648
  C   5.71163039512659     -2.31331210654653      0.00980096402485
  N   4.94077070425157     -1.08823162646574      0.15821110658194
  C   5.69371712608786      0.14446473850454      0.09040660173878
  O   6.91670979657109      0.01269586910163      0.06138816298123
  N   5.03455785055344      1.29921977377060      0.07046031949784
  C   3.67899430463423      1.35159900992224      0.03378785122371
  N   3.01807665717448      2.50775058727227      0.01722840491453
  C   3.69095221144811      3.64237734965474      0.04655427595292
  N   2.93764897459035      4.80856521593541      0.03137108704540
  C   3.37758343094807      6.09393030101259      0.06579476589803
  N   4.57593822556412      6.54541398357566      0.11870595373277
  H   1.92737755789705     -2.20861029552221     -0.07709915491887
  H   3.69519070214683     -3.59529828644168     -1.30044768984496
  H   2.94843440617348     -4.35072064171740      0.11662453947495
  H   5.47710562860411     -4.43524001345773      0.19392512064024
  H   4.78842854541115     -3.51303456350729      1.54173368625712
  H   6.01212017332864     -2.43350181183652     -1.03949166407696
  H   6.62701165028908     -2.18633869033029      0.58129930871728
  H   4.76904495819532      3.71671516740264      0.08461642634856
  H   1.94290581648158      4.64772910494886     -0.00574330442155
  H   2.55605565578909      6.80953745906416      0.04325561526213
  H   5.25617177418544      5.78830997581220      0.13431784531370
