27
Coordinates from ORCA-job 12629optt
  Br  1.26857592213620      0.13626147886800      0.29199425022077
  C   3.16071531264066      0.08228196616535      0.19158081939810
  C   3.81442934175575     -1.14560818611214      0.07320324551097
  N   3.11566188858917     -2.30947597903441      0.01670713877762
  C   3.70338861830094     -3.54776498508817     -0.06909443159194
  C   5.06506528235950     -3.64579284240634     -0.10544337166965
  C   5.92043238063360     -2.50641442973328     -0.06065349804269
  N   7.24769982302394     -2.55938638704348     -0.09121827373639
  C   5.25155758661170     -1.20390370708676      0.02385239909076
  C   5.92148167678932      0.00077118410220      0.07541444549268
  N   7.31332251928482      0.14880837297648     -0.00367612161801
  C   7.94726018484498      0.69585169030169      1.19940778169203
  C   7.95354956913381      2.16328901160563      1.24968902708808
  C   7.95173338102242      3.36178856541955      1.29682852213993
  N   5.23004057689812      1.19815224079679      0.18609950871135
  C   3.84517026888740      1.33296922280519      0.23384855014017
  N   3.25639732463313      2.48354926857248      0.30437662256322
  H   2.11201376640052     -2.23500317771510      0.05907723848854
  H   3.03095153630369     -4.39052066567207     -0.10714253501750
  H   5.51903400085556     -4.62679017250668     -0.17577245452095
  H   7.54847503463254     -3.52780641886203     -0.15141710289363
  H   7.68061616290970     -0.80325879721095     -0.16004164401200
  H   8.98394542171597      0.35441390558234      1.20462622826644
  H   7.47593693844049      0.31855334905473      2.11697649400263
  H   7.93862039404005      4.42382622797183      1.33577861241404
  H   5.76872376788116      2.03912874760093      0.04618571986510
  H   3.95120131927473      3.22608051664822      0.33481282924032
