25
Coordinates from ORCA-job 12625optt
  Br  4.78159209672323      0.52912695405573      5.81529188548791
  C   4.51370250230260     -1.85872898182354      1.46253990535146
  C   4.81655961889237     -1.07033386952217      2.54176309825666
  N   6.07784270217675     -0.67506409740983      2.89688729218109
  C   7.08481561075020     -1.59033036853273      2.38585854550327
  C   6.86779369597775     -1.79536612268747      0.86350217122377
  C   7.95323579976219     -2.63113272180073      0.34893464837992
  N   8.82990013485948     -3.27064246120884     -0.02091412505295
  C   5.48837908529387     -2.36228714551809      0.54478260887220
  C   5.22905679823104     -3.16735113402565     -0.52970376284770
  N   4.07129795321698     -3.66508405689014     -0.99239994797005
  C   2.83814407931427     -3.47130350172761     -0.51446265222755
  C   2.26017362251367     -2.75703095008373      0.55476042303605
  O   1.06171463603269     -2.68939172090593      0.83489325260262
  N   3.13752340647196     -1.99852216176265      1.46972184792708
  C   2.64331817372208     -1.33266001993284      2.50509472164624
  N   3.64392833206896     -0.75210124138629      3.17108536691018
  H   6.15949174070105     -0.35612962319785      3.86305550026134
  H   7.03197279434563     -2.57181592719681      2.87242799829017
  H   8.07105388666287     -1.16399921545722      2.55885164345981
  H   6.97702402647893     -0.80876042640202      0.39685374333047
  H   6.09276881902476     -3.46809964137435     -1.11975241041019
  H   2.05624569358577     -3.97986190307021     -1.07185330264714
  H   1.59659900014717     -1.30122727700713      2.74444752355431
  H   3.63886579074362     -0.23990238513187      4.07833402488097
