22
Coordinates from ORCA-job 12623optt
  Br  0.85445867537351     -0.76329679919991      0.23117032795986
  C   2.70449893678189     -0.56097288524969      0.49737573898035
  C   3.62370356070576     -1.55405169921148      0.13776510089024
  N   3.35665534565407     -2.83530447405723     -0.25544390290497
  C   4.54732140178488     -3.40329568949107     -0.45101263450662
  C   5.62787787888998     -2.52811318014745     -0.20735157169295
  C   7.07275550665824     -2.83925841284181     -0.27124081597612
  N   7.66007513420565     -3.05004669730745      1.07051008625513
  C   7.06939545457612     -3.11621925366549      2.26618888339712
  N   7.99290230723349     -3.33834575967518      3.17466118719182
  N   9.15441472955353     -3.40587601969458      2.50340893925222
  N   8.96565296905172     -3.23400142517886      1.24441568464221
  C   5.01697274804897     -1.33011211203066      0.17402902375289
  N   5.61597428200799     -0.11642427391678      0.53641594970271
  C   4.98817691731145      1.04649452036192      0.83156915032712
  O   5.57891542995444      2.07319236953736      1.09937109964844
  S   3.20406999703403      1.08418602743129      0.83069060996159
  H   4.63070807962332     -4.43322975480335     -0.77747637196570
  H   7.66755275179412     -2.04568387772579     -0.72992004157444
  H   7.24659425473629     -3.75411426525088     -0.83787625411853
  H   6.00973893856107     -2.99699970551145      2.41300336045141
  H   6.62358470045907     -0.04752663237137      0.56974645032618
