25
Coordinates from ORCA-job 12639optt
  Br  1.11780140363013      0.27621041944283      0.14402745925416
  C   3.01454156348125      0.11677054887837      0.34103326375297
  C   3.58997403868853     -1.18538133460699      0.31395667168837
  N   2.88095882513567     -2.36378982939083      0.68624770503274
  C   2.81281654063118     -3.38047600856489     -0.33912185623673
  C   4.14902993188941     -3.62400579019588     -1.10987209928937
  C   4.26298527231576     -2.76708300921076     -2.29787074376602
  N   4.34234929506406     -2.17373583031589     -3.27668435695746
  C   5.35511503495814     -3.52130594970834     -0.22644942624231
  N   6.17308844421611     -4.52181624061920      0.02216611141310
  C   7.11525471326787     -4.01060350656995      0.87143829424199
  C   6.85128053452710     -2.69597512728428      1.13667127261642
  N   5.72013205625588     -2.38405552365651      0.42642603846977
  C   5.02357610658413     -1.13743141410747      0.41896327851546
  C   5.70671837978260      0.04635182558774      0.50347577866298
  N   5.12637568430766      1.26583322533779      0.52485453827167
  C   3.76427955732994      1.25344471809117      0.41974870475066
  H   3.23539231297417     -2.76434867771543      1.55216322059423
  H   2.04512048265235     -3.11407203479824     -1.06911948542368
  H   2.52666616088952     -4.32537033259459      0.12951244185627
  H   4.15224614626542     -4.65037657495454     -1.48413662163121
  H   7.92372871510672     -4.61424477767727      1.25035782493202
  H   7.32575271704802     -1.96982625999715      1.77232463230069
  H   6.79330991983100      0.02847031941734      0.53318525284371
  H   3.27450616316725      2.21981716521299      0.37670210034960
