27
Coordinates from ORCA-job 12633optt
  Br  0.92803846626385     -0.58156567078935     -0.89300790469130
  C   3.02088025593728     -0.16866292025008      0.27648970126653
  C   3.78809120661955     -1.29723678000839      0.44535694113794
  N   3.23691331155847     -2.59054125045565      0.67885839511103
  C   3.29574945701694     -3.42728164158307     -0.50805292933941
  C   4.62751498965001     -4.18829847230129     -0.60398533152004
  C   5.87491653367610     -3.30066997992543     -0.64590045710735
  N   6.00876820956681     -2.31252005682649      0.42895389869683
  C   5.17375601630810     -1.15122859028136      0.24997167360930
  N   5.77583867028957     -0.04791579328508     -0.11877026600218
  C   5.02143081328277      1.08716554242172     -0.29863641863460
  N   5.46042897597365      2.23924718564851     -0.66097222678862
  N   3.64601557727246      0.96963010300936     -0.04210041440824
  C   6.08669287043689     -2.63318466283719     -1.99113697356382
  O   5.67065692499412     -3.08863679155095     -3.02301506314018
  C   2.19799441484270     -4.45598413929919     -0.50167173840677
  O   1.41788100824215     -4.62616399543814      0.39305747466419
  H   2.26683866111351     -2.49785383025447      0.96444709257945
  H   3.15152134122136     -2.83688397470727     -1.42802540687578
  H   4.63097474575421     -4.81824826104114     -1.49728960673207
  H   4.70108736716552     -4.83652468478922      0.27439578614343
  H   6.74211418853943     -3.97175114284652     -0.56178786514712
  H   5.69862693335523     -2.76403904313937      1.28567096097185
  H   6.46473204158343      2.16402410686820     -0.78953799543989
  H   3.10957733831227      1.81382310955408     -0.18476652628497
  H   6.69466311874217     -1.71318564747209     -1.96353635489170
  H   2.16829656228131     -5.09151271842006     -1.41000844520649
