26
Coordinates from ORCA-job 12642optt
  Br  0.82918080171350      0.47371425106593     -0.02420579913437
  C   2.67533089526469     -0.01527162142566     -0.03913759671728
  C   3.04009744688942     -1.34118373272036     -0.20641175886205
  N   2.00220028820736     -2.27973754572660     -0.42193987259157
  C   2.44894252743176     -3.57415704180821     -0.65146787683305
  C   3.20190093115915     -4.10997482196684      0.31775453024813
  C   4.61181880990831     -4.31183795610834     -0.11032419877381
  N   5.23553361756332     -5.43730168740755     -0.21541574191612
  C   5.11390307806882     -2.97683165319647     -0.32037569870814
  C   4.46797105289723     -1.70461955669138     -0.22806066729573
  C   5.38364921020157     -0.59833196819543     -0.14608239926815
  C   4.97354202599549      0.68596040099384     -0.00692525811543
  N   5.68971903489288      1.86469798732096      0.09601552795053
  C   4.83153421603291      2.96359362200150      0.26224710639755
  N   5.18327455730802      4.20046206696862      0.41332045409723
  C   3.49897778254674      2.42065822075613      0.22534416657324
  C   3.58819610485741      1.04798426674659      0.06927627214808
  H   1.22007540553978     -1.91592402041444     -0.94451160328339
  H   2.50230675334399     -3.92592283659524     -1.68061669463281
  H   3.08656957266147     -3.67396551403727      1.30691038312031
  H   6.18633060344669     -5.25690159442895     -0.54466691795654
  H   6.19760749385789     -2.90909666512024     -0.40219203927804
  H   6.44272182712784     -0.82611648307528     -0.17386447089561
  H   6.68921397396486      1.92635029237022      0.16249269219902
  H   6.19783496363509      4.28539164441049      0.39622169048656
  H   2.60956702548376      3.02136194628400      0.30761577104142
