30
Coordinates from ORCA-job 12643optt
  Br  1.03662979104761      0.28760369923526     -0.98932945279953
  C   2.90463487219008      0.17776488620599     -0.54012145547269
  C   3.54844793959150     -1.07745351283847     -0.68170012657892
  N   2.76340225975457     -2.25278784016074     -0.86593602956507
  C   2.16974011997535     -2.84383954712913      0.32989140281591
  C   3.03181475806748     -3.81047473431611      1.15222392863886
  C   4.46958081215646     -3.35363457970026      1.37761584098931
  N   5.31610360434610     -3.53265488502324      0.20425575076582
  C   5.76788666176564     -2.33505155778529     -0.53497617623215
  C   4.94996399130037     -1.08292433764757     -0.36641576855157
  C   5.58638745628449      0.05669393101224      0.05437793022107
  C   4.91681445181016      1.30730084560150      0.19959721928278
  C   3.51764228014161      1.32519927958463     -0.13010415774011
  C   5.58958223984190      2.45542499379141      0.63153284363190
  C   6.18235081553373      3.45234801493933      1.00220072740977
  C   5.13328820329244     -4.08498732498077      2.52683444624112
  O   4.57645737025083     -4.74180585686486      3.36627513378607
  H   3.18637019591627     -2.93382959667353     -1.47860859738449
  H   1.24602963495367     -3.36250495144108      0.04997874986093
  H   1.87247044859046     -2.00321995815585      0.96037751951801
  H   3.07276114850839     -4.79154685607691      0.66139831022469
  H   2.55384228864407     -3.98263493367267      2.11935073093629
  H   4.48427991537085     -2.28976610930328      1.65902591506618
  H   4.86634533442615     -4.18096421505388     -0.42393866585527
  H   5.79633969941792     -2.62741874497184     -1.59172379871317
  H   6.79617232045956     -2.10479682145035     -0.24618644388485
  H   6.64914740589707      0.01496983659384      0.27013283126331
  H   2.96482219358633      2.25253330017540     -0.07908511501845
  H   6.69486176899211      4.31815136176969      1.34064188431415
  H   6.23583001788666     -3.97569378566338      2.52841462283010
