26
Coordinates from ORCA-job 12646optt
  Br  6.85370503015636      2.24502606663141     -2.38001546475973
  C   6.38832736789833      0.41176416185131     -2.28857707928786
  C   6.52670223893174     -0.41769941614603     -3.33047922000775
  N   6.08002516781824     -1.76351796540769     -3.04601020275535
  C   6.99284430103170     -2.34557954977154     -2.02274694532321
  C   7.21795277866024     -1.37128012162088     -0.88815111907200
  C   8.36811248166766     -1.23503593001793     -0.18512963971668
  N   9.54592939239506     -1.93856034509503     -0.27046492437810
  C   10.26279699030653     -2.02190632773731     -1.39009298442703
  C   10.04688731653473     -1.29394970893432     -2.57666339519855
  N   9.14633280535073     -0.35555066682923     -2.74712213223776
  C   8.77184923888084     -0.43097443920514     -4.06152975613414
  C   9.95015882665725     -1.02714300345064     -4.81059593605300
  O   10.63496029411406     -1.73323039085042     -3.76999341080437
  C   7.47527803888761     -0.33151389084708     -4.45160728283465
  C   6.31218007745625     -0.18368975007221     -0.91046303376535
  N   5.73219050341353      0.40077748028920      0.05984881042749
  H   5.15818390929699     -1.70643781310263     -2.62530076327778
  H   7.92451797265846     -2.63706944848230     -2.50651180850525
  H   6.51867574227235     -3.26028694827607     -1.65708736969383
  H   8.37498996269661     -0.45441397702102      0.57767477443559
  H   11.10045103226744     -2.71318509697357     -1.38648047105079
  H   10.61268988844292     -0.26441857842689     -5.23322755766863
  H   9.65775738265973     -1.73331855480924     -5.58745880992645
  H   7.17878914454903     -0.61050034564437     -5.45366688246851
  H   5.88071211499532     -0.14930544005035      0.90685260448376
