29
Coordinates from ORCA-job 12652optt
  Br  1.72703068913815      0.72404029278998      2.60678753032849
  C   2.51449431860728      0.77667988809090      0.85411202862793
  C   3.37854603367938      1.76341781804549      0.56117736558369
  N   3.56620508223283      2.94292601189256      1.28213155936143
  C   2.39252838851938      3.82906203472787      1.34327606595520
  C   1.53960407465116      3.95995346027696      0.06485545239693
  C   0.47898451115999      2.86368708191436     -0.18516929420587
  N   0.78673738304086      2.06614284886475     -1.36823416126314
  C   0.16876687999093      0.76302725778432     -1.45461895977886
  C   0.64350395792136     -0.30302417999379     -0.38557129755855
  C   0.22793654098489     -1.62242889072750     -0.86944343351515
  N   -0.13588827341123     -2.63129165453604     -1.28022228923680
  C   2.13347224700922     -0.19007444915172     -0.13591512843505
  C   3.03538633212942     -0.32076172725615     -1.22748722543428
  C   4.08397366902934      0.57325773031680     -1.45934823911401
  O   4.96634873207595      0.59246729401119     -2.29806885062813
  O   4.06681399399586      1.75684419137883     -0.60732495887324
  H   4.36884980022042      3.42586740301256      0.90056951206524
  H   2.77763757049553      4.81421606357320      1.61398638958100
  H   1.75204097230069      3.50709430071788      2.16724714097219
  H   2.19829458674546      4.02149971461847     -0.80677071916891
  H   1.03204939434123      4.92571017901684      0.13000074993801
  H   0.37849178373675      2.25366412807432      0.71992615209413
  H   -0.49750208104190      3.33200587875320     -0.34969626211841
  H   1.78880917866555      1.95940366203356     -1.48263619390717
  H   0.40724632900320      0.35293777568774     -2.43681285310540
  H   -0.91883161626030      0.86863319787881     -1.39261725692047
  H   0.10894613871467     -0.14166527469366      0.55369112068512
  H   2.90552338232378     -1.10329203710183     -1.96582394432589
