26
Coordinates from ORCA-job 12650optt
  Br  4.54046552940591     -0.07028515287034      3.27255388650024
  C   4.98810688475207     -0.24530674727160      1.44385136332337
  C   6.09817616781718      0.35188530012917      0.95058893305708
  N   6.33858130756908      0.23736654708102     -0.40475674095634
  C   6.11958358072033     -1.04802182179850     -0.95786644981974
  C   7.26578780120540     -1.60450839152651     -1.54792829183236
  C   7.71449946981707     -2.91099598999332     -1.23138227328049
  N   8.92766621887290     -3.22966491548815     -0.86732640713208
  C   9.90282047633562     -2.32589140108432     -0.51048271466607
  C   9.86743240106246     -1.27443914975174      0.35326596177793
  C   8.66135294865063     -0.75944880675872      0.97497808143534
  C   8.44004744469870      0.48232031310962      1.43639595811913
  N   7.11384353777724      0.99453207255021      1.65357346576581
  C   4.89383530141506     -1.68485845653047     -0.60493593536317
  N   4.41558383873984     -2.76602454426241     -1.17746145678652
  C   4.17781434899983     -1.15752072481334      0.61331148195903
  O   3.09361624259738     -1.57106090988699      0.97425220268332
  H   7.25607541594769      0.58667909802038     -0.63658225301201
  H   8.08033415262557     -0.89836342588264     -1.67822616545682
  H   6.99355625225224     -3.72735939960561     -1.20938255140093
  H   10.88721002078864     -2.57439259296973     -0.90606033116126
  H   10.79949743469618     -0.74484177059116      0.52047631894836
  H   7.80892770721694     -1.42964702117348      0.94411731133466
  H   9.23103238576171      1.21894088823497      1.52919310294543
  H   6.86500559539954      1.20730326913315      2.61049952613326
  H   5.00414753487463     -2.98239626599948     -1.98366602311519
