23
Coordinates from ORCA-job 12669optt
  Br  1.05399152360379     -0.09255375296027     -0.25184483169858
  C   2.93895332448186     -0.11419377880474     -0.05145666014874
  C   3.66826514922457     -1.26428290839223     -0.07375558320798
  N   3.00932851061132     -2.49390033793450     -0.16604219446223
  C   3.66636237961839     -3.65895436222094     -0.13224871017076
  C   5.01107001247845     -3.69704595082466      0.03659748351047
  C   5.63558072379748     -4.97281977415307      0.08803364088029
  N   6.14397714535398     -6.00568669427317      0.13414829088914
  C   5.82177714919693     -2.46407092466376      0.19048953774081
  N   7.07932309730018     -2.51308686576139      0.49120182266408
  C   5.10323734198256     -1.20603512291339     -0.00845208161834
  C   5.73066687824495      0.08341761129272     -0.06586083576255
  C   7.14069885009819      0.24815857824200     -0.30341011497583
  O   7.75161320903964      1.32351601634892     -0.30648628552398
  C   4.92351821651780      1.30574292677491      0.02819600108094
  N   5.29272859761380      2.52608459092480      0.12658052136874
  N   3.53354814457617      1.11384610821805      0.00114094130336
  H   2.01014251033735     -2.48328376801953     -0.27978502931713
  H   3.07138666938957     -4.55570209410972     -0.23755043561377
  H   7.38447312201609     -3.47936237228646      0.59275124585538
  H   7.68708244772913     -0.66992624965402     -0.52951360192906
  H   6.30870253370919      2.55630829061409      0.11409617407294
  H   2.99057246307851      1.94983083455638      0.14317070506281
