26
Coordinates from ORCA-job 12667optt
  Br  4.51578745414131     -1.96247971509249     -2.94186477737138
  C   5.52688824034462     -1.14072983133195     -1.56762540662405
  C   6.86978515766810     -0.95030050510701     -1.60911470712216
  N   7.51648642986753     -0.36952982692763     -0.56036828598213
  C   6.82985100266232     -0.29470577299343      0.59937222642990
  C   7.62052999118616     -0.18591444580134      1.86729551830525
  C   8.00182532795926     -1.58463055108068      2.39981751822240
  N   9.12820227748679     -2.28304933266187      1.77825850067002
  C   9.11589854223294     -2.48427357533451      0.34316252305619
  C   9.86112461095730     -1.38578465990996     -0.40998427001225
  O   10.70546223638077     -0.72327520175495      0.15598723265627
  N   9.84810243285219     -1.38203422497406     -1.80455449745231
  C   8.83921198743468     -1.49987606786169     -2.76972669151277
  N   7.58167561970728     -1.37069834093642     -2.73569686643867
  C   5.44278265660402     -0.52112364390023      0.71662371346648
  O   4.73106176899388     -0.51177640614677      1.70732106032873
  O   4.76690996372654     -0.76725465473249     -0.52438419513364
  H   7.02332017065448      0.31371716030317      2.63307030508744
  H   8.52822938522755      0.39507394667004      1.68454658093084
  H   7.11725772485939     -2.22380579393481      2.33478561209245
  H   8.25538114397159     -1.50799218829259      3.46090798723138
  H   9.98603405398610     -1.78914665904977      1.99957801560706
  H   8.10648236547378     -2.63423627224757     -0.03394434904287
  H   9.68914375103471     -3.39181828783736      0.10521376556996
  H   10.69014501842519     -0.94913967853911     -2.16000456797557
  H   9.27842068616132     -1.73021547052447     -3.74067194498658
