27
Coordinates from ORCA-job 12679optt
  Br  1.87659990678794      0.33988991685449     -3.46730009172183
  C   2.44541690421903      0.41950377599287     -1.61755520597545
  C   3.52469556927285      1.17950873856631     -1.29261134387886
  N   3.83333376427188      2.43301351589891     -1.84112847281104
  C   3.20159650710929      3.52690222264799     -1.06215308323074
  C   1.71830387422146      3.76708808336670     -1.35960358834730
  C   0.63175746562501      2.89129393014971     -0.71418174800036
  N   0.52022114621580      3.03797641719701      0.73134651204646
  C   0.47700660558846      2.04939551871189      1.53467983588063
  N   0.67350501517623      0.68841370009598      1.34412619063931
  C   1.80224126541240      0.36882729636573      0.52582952598447
  N   1.61221945140612     -0.10013955486016     -0.72302593485274
  C   3.05097645624056      0.88469797471074      0.98901752823634
  N   3.29645706797356      1.25235164554511      2.19724525202498
  O   4.02049687998750      0.96500235648513      0.00738599889223
  C   0.13172090498000      2.43783402390017      2.94345325451685
  O   -0.12547973881846      1.65260783408620      3.81611938742477
  H   4.83559604724586      2.58425632034071     -1.86090637602235
  H   3.73942168652000      4.43883057828135     -1.33491568556586
  H   3.34124000225722      3.38079722568628      0.01698761455859
  H   1.58010524789048      3.70733129248599     -2.44288315278144
  H   1.50593127649766      4.79748169512376     -1.05690250308190
  H   0.68737203459434      1.86017722339349     -1.04401497468306
  H   -0.31434428665117      3.28683224913400     -1.10240452381662
  H   0.66060154670300      0.22373660595424      2.24682925135388
  H   4.24035745197503      1.62850515873509      2.24537800018503
  H   0.10664994729791      3.52988425515029      3.09618833302600
