28
Coordinates from ORCA-job 12672optt
  Br  6.65473549962854      0.32829577712239      2.80743900459174
  C   5.57053618060306     -1.23684859131711      2.82366720834340
  C   4.68663542406569     -1.51062286165188      1.74783679775424
  N   4.77083802357210     -1.21741425160331      0.47349505666014
  C   5.96888825787683     -0.94454455057859     -0.13188874791678
  C   7.22610552061200     -1.40180991972018      0.23264884189173
  C   7.43368450897148     -2.32902245301435      1.25655564750087
  N   8.48742386305545     -2.27619725667947      2.14995330389044
  C   8.38606088239231     -2.44571763449334      3.52879686116806
  N   9.48993305881605     -2.38063495923114      4.19189790596163
  C   7.06989807154951     -2.76327637988920      4.10929830262987
  C   5.84412632650507     -2.30030198073467      3.73317275795974
  C   4.60074019113712     -3.05213721183036      4.19498204782256
  C   3.34886126032727     -2.44246150612030      3.57996082548493
  N   3.55888789903230     -2.28964507955236      2.15093975660382
  C   2.78538737761935     -2.96780088126513      1.26238715645066
  O   1.81188236283696     -3.63722521875575      1.56301561916699
  H   5.89253928852056     -0.31221152663534     -1.01153615660680
  H   8.08258649013495     -0.89825487523141     -0.21021466701377
  H   6.66825382613976     -3.03981545568622      1.51823395872948
  H   9.30565223845205     -1.74381173858058      1.88767725090569
  H   9.28097090244518     -2.44762951778761      5.18322787996686
  H   7.11234378402256     -3.49711115838907      4.90828102513785
  H   4.67723478080361     -4.10252508591295      3.90223097598593
  H   4.53505949021856     -3.01852692425201      5.28627730722232
  H   3.16284775611369     -1.45736058514013      4.01243314625324
  H   2.47419478235019     -3.07304459193632      3.71689671832703
  H   3.13269195219756     -2.83534358113351      0.23333421512799
