31
Coordinates from ORCA-job 12676opt
  Br  1.97992690011153     -1.18468847674572     -1.19068483744768
  C   2.59706533900653      0.28753642637140     -0.17706523180316
  C   2.56161196765994      1.52678791176726     -0.68444034053370
  N   2.01840802787527      1.92926774189040     -1.90514085069299
  C   0.58229851152919      1.77703707056865     -2.13721391222622
  C   -0.28800000747825      2.99703829180936     -1.81862372305481
  C   -0.35369712947901      3.42679012205511     -0.35334575564372
  N   0.80820225490812      4.21042408609380      0.01533234221951
  C   1.00792804099923      4.60418155454608      1.32601132183974
  N   0.11212800676837      4.76318882114734      2.22141136072657
  C   2.46066290451265      4.86568694583776      1.64803794735433
  C   3.17355799202612      3.61639349395538      2.19915227055305
  C   2.91097511877015      2.35537436239635      1.44752189588796
  O   3.12496879755439      2.54957379281481      0.02083050143383
  N   3.22841318551877      1.17010857970718      1.96739875650226
  C   3.12786169030622      0.06226898352657      1.19589007130457
  N   3.42078393187084     -1.14947158793738      1.55923039973199
  H   2.37692892188007      2.83371214023949     -2.17960477593481
  H   0.24793490719303      0.92711060016846     -1.54511014579080
  H   0.42640912830370      1.50745104728520     -3.18573098101197
  H   -1.30060237344929      2.74958178586870     -2.15016597376462
  H   0.03548225404636      3.85462438768560     -2.41862387847874
  H   -0.44176141369033      2.54441956770080      0.29795361876490
  H   -1.24921407383960      4.03704146587065     -0.20761007093418
  H   1.66541539985219      3.84212712104120     -0.37143636777333
  H   -0.80735385695695      4.49169509462613      1.87820652775613
  H   2.51064706934677      5.66423188874725      2.38722004013936
  H   2.96950398632429      5.20717727430537      0.74340951860729
  H   2.84143247564524      3.43046443454302      3.22024369849834
  H   4.25434089750958      3.83792313757847      2.24668865944002
  H   3.74774114537483     -1.09505806546476      2.52325791433082
