24
Coordinates from ORCA-job 12670optt
  Br  1.15653768793282     -2.12330914741418     -1.61239040110608
  C   2.41642614335786     -0.99852607458474     -0.75014003418615
  C   2.12888041049493      0.36240099891336     -0.58900718053227
  N   1.00542524233773      0.94882635591976     -1.16705374996734
  C   0.34453975456192      1.61646027958029     -0.28041198904258
  C   -0.05871668931131      2.97523084375750     -0.52696120719555
  C   0.77230874528421      3.61520285269150      0.35028467656594
  N   1.75096803554476      4.46555203434364     -0.03753095667248
  C   2.91653826962003      3.81985688396702     -0.11760159993723
  N   3.29046438638990      2.56271310248751      0.01024602060051
  C   3.05763265073075      1.25493136810625      0.05659531126658
  N   4.17613949711590      0.53938396936268      0.65204572408933
  N   5.18283798502330      1.14739154829007      1.32337344495052
  C   6.04604306956185      0.22699968705706      1.57367720729460
  N   5.62830560696543     -1.01986040681845      1.12439187998540
  C   4.42511622799987     -0.80193387594689      0.45880465843810
  C   3.59540251873257     -1.61690728336359     -0.23203906879082
  H   0.40915236598876      1.32067116257704      0.77360791011598
  H   -0.04736455855246      3.31072084647041     -1.55702021440430
  H   0.86282840283930      3.20174815610525      1.36055610969311
  H   3.74977927136365      4.49055334405787     -0.33733295905881
  H   6.96137111469068      0.38312147493276      2.11751236085705
  H   6.24476032706798     -1.77999436558571      0.89902626288353
  H   3.80262353425949     -2.66723375490645     -0.36063220584705
