26
Coordinates from ORCA-job 12680optt
  Br  1.33543360086894     -0.61608267103528      1.25296758458626
  C   3.11727999334965     -0.43668959911663      0.65798604952968
  C   3.85398727838439     -1.50354454865420      0.21606347402589
  N   3.35835861152772     -2.76909027020984      0.18884995058382
  C   4.18368618610332     -3.71093228825663     -0.25858968809339
  C   3.65055995814697     -5.11773851203440     -0.27126809249127
  C   3.25245939140458     -5.56854528253671      1.13386969238481
  N   2.65438350115176     -6.89441537334578      1.17993480062230
  C   3.39652892108732     -8.03184864056743      1.24745599097044
  N   3.03964657324667     -9.24416980129178      1.07928729679923
  C   5.48085311769357     -3.41900838748503     -0.67691242895702
  N   6.00171273012803     -2.18732218538382     -0.67299252612012
  C   5.21003088556688     -1.19694104775633     -0.22666549886811
  C   5.65620843281880      0.12089523337120     -0.17824405101714
  C   4.86111738143489      1.18418303163418      0.29107589089918
  O   5.11652717171123      2.36312141730130      0.39137586931268
  O   3.55030574651785      0.82195190757846      0.71891649495381
  H   4.39545289622061     -5.80550440335842     -0.67985969051149
  H   2.76498283205456     -5.16769964547798     -0.91346797297066
  H   2.55281684435938     -4.84468895899903      1.55048835558912
  H   4.13129981295057     -5.57451138257070      1.78226164456896
  H   1.71503243212308     -6.98333337240626      0.82239624904621
  H   4.43619444640124     -7.83361453689164      1.51479458859791
  H   2.05201709630722     -9.30492655055817      0.82785999435540
  H   6.12177758764612     -4.21937049228482     -1.03536755831004
  H   6.65634657079457      0.35882636033580     -0.50621641948647
