23
Coordinates from ORCA-job 12681optt
  Br  1.59621335509602     -0.48202655119717     -1.77073891982726
  C   2.06085353584198      0.71437553818648     -0.33145660850285
  C   3.09717853814880      1.59790812472411     -0.52200392293439
  N   3.36820002041106      2.18009361656017     -1.81593581139708
  C   2.09762076656163      2.81909943598180     -2.13372534509132
  C   1.55706093589764      3.75344426370838     -1.34621305422300
  C   0.18498205379965      3.51973411075544     -0.86974725215119
  N   0.08453979383831      3.51251122925932      0.39412233397614
  C   -1.00852502042134      2.91596930626689      1.05957291597901
  N   -2.22310926015731      3.12284096444563      0.64839132042354
  C   -0.61595007817738      2.17832041624439      2.23626659051181
  N   0.65790015580003      1.93795214925743      2.57965850483662
  C   1.51713182492546      1.54888715872296      1.68454652095069
  O   2.78622884330651      2.03693735907367      1.81250938983587
  C   3.51947461108736      2.29478006326152      0.66285349443950
  O   4.44672956000230      3.06689055130661      0.74347339445112
  N   1.26278363775865      0.65865703655617      0.70864684819083
  H   4.12817112504627      2.84419594487114     -1.70548868431667
  H   1.47447017589248      2.22909591005465     -2.79829541184117
  H   2.19071695204720      4.25120074166811     -0.61797108594085
  H   -0.58400354678515      3.11530519950151     -1.53461530237398
  H   -2.86972845676883      2.62722730144489      1.26161271469038
  H   -1.39393952315137      1.95760012934581      2.96153737031425
