23
Coordinates from ORCA-job 12683optt
  Br  3.69939923047156      0.94411668983832      2.47681631156570
  C   4.13307803333225      0.32604414390397      0.71970707575174
  C   4.68232304035773     -0.97400545724049      0.57742742665237
  N   4.98664508526858     -1.87135223517330      1.54268418356889
  C   5.47769421983973     -2.93616597250528      0.89377323335808
  C   5.50217942873349     -2.77650693985841     -0.50554682803335
  C   6.00785728333019     -3.73469168889938     -1.52819244760722
  N   7.31536870043089     -3.45350597128311     -2.14547207985739
  C   7.90932062352848     -2.39183516948360     -1.84000116057656
  N   9.14795971627035     -2.09276407506276     -2.40855935383003
  C   9.86260884054757     -0.96821323283635     -2.15112752811341
  O   10.94169980898454     -0.71853344375740     -2.63646568916527
  C   4.98733958178687     -1.49365353553496     -0.70652683502441
  S   4.75838774262420     -0.62097508055546     -2.19319700731593
  C   4.11830084974876      0.87282712587560     -1.52878318396687
  N   3.89454721446360      1.15033166398645     -0.26875554981176
  H   5.80176192335818     -3.81636069541434      1.43663200408376
  H   5.30506067807694     -3.82497414854352     -2.36303528205943
  H   6.08616356581175     -4.73257358245525     -1.08959356227982
  H   7.53892904828420     -1.64362752781007     -1.13622158392505
  H   9.53414111842369     -2.76419142042265     -3.05870943661339
  H   9.35411911963642     -0.29421961174989     -1.44479998444054
  H   3.90111514668962      1.62283016498201     -2.27805272236006
