29
Coordinates from ORCA-job 12689optt
  Br  1.67897131433984      1.92965406731253      2.90058240123404
  C   2.35917124154562      1.36680010636067      1.18296931473941
  C   3.22715520314519      2.17372031607722      0.53830568458314
  N   3.44616070663754      3.54049273220248      0.83839385999177
  C   2.77325670631213      4.43219312080694     -0.12798880160707
  C   1.37377717655819      4.90995269912754      0.26106342636915
  C   0.21133793653259      3.91086117812084      0.31139222973792
  N   0.02273947478808      3.11826421000322     -0.89122603659898
  C   0.12709691397179      1.73908260272909     -0.90873308790653
  N   0.50365694092971      1.14101947972509     -1.96108867972654
  O   -0.27616632266607      1.19670760952950      0.26812341298595
  C   0.38461099141593     -0.02821994775289      0.70868869694480
  C   1.86760564929563      0.13627409444686      0.65497402390206
  N   2.54552936006240     -0.61388829104361     -0.24037936334725
  C   3.69603194259686     -0.22423746354807     -0.79654639009424
  N   4.57380872801587     -0.93146706659911     -1.41688360110409
  S   4.06615930133219      1.56463452669840     -0.89078133914802
  H   4.44128633539066      3.74001019721714      0.82520629472759
  H   2.73900038402942      3.96570867197391     -1.12051657978725
  H   3.39611312072812      5.32575429068141     -0.21996495900767
  H   1.11466091380421      5.69774804213132     -0.45769951102126
  H   1.42668163820637      5.38783452080075      1.24352555882381
  H   0.32971589962890      3.22904858507040      1.14438210275197
  H   -0.69495391716123      4.49278139830615      0.51506313286194
  H   0.36119900482290      3.50958392812629     -1.75701464241912
  H   0.54122976686833      0.13481405929159     -1.83695450929192
  H   0.09273605485672     -0.86917622401885      0.07715093735800
  H   -0.02442963896493     -0.16143879087508      1.70960284774464
  H   4.25585717297697     -1.90051265290179     -1.38264642369626
