26
Coordinates from ORCA-job 12699optt
  Br  1.32650161788852     -1.93590809127295      1.38947255077460
  C   3.05892222946639     -1.45700869056348      0.75358091333612
  C   3.21488459528970     -0.97738671257475     -0.56296954364389
  N   4.45509937884062     -0.37681591853834     -0.85236983994769
  C   5.56672310792954     -0.80148117558458     -0.17706159966696
  C   5.47781484925981     -1.47300284096344      0.98565260117102
  C   6.52471846901414     -2.50458413914835      1.31368179087900
  N   6.21116611967954     -3.55308209383369      0.32440164176228
  C   5.21587713235040     -4.27722327900900      0.56702920667833
  O   4.55289894747521     -4.94008111650593     -0.42268662667094
  C   4.26746624403777     -4.15632715715504     -1.59212953422643
  C   2.81500607759729     -3.67285440277910     -1.56982657054720
  S   2.56266357448378     -1.90799215165967     -1.91849379357145
  O   3.36669114648458     -1.55924660597437     -3.08192360787026
  O   1.13111268241492     -1.77164356394015     -2.01823338874500
  C   4.15161682605953     -1.68838239610862      1.62930825514908
  O   4.07926990402125     -2.13736816176007      2.78572903312188
  H   4.57179490417800     -0.07391877538734     -1.80632712767533
  H   6.51685100163798     -0.64534270764730     -0.67830546865099
  H   6.41700149885789     -2.84070308556713      2.34745397698217
  H   7.53966671326989     -2.15032796209594      1.13519199420900
  H   4.74209277658184     -4.39886667255451      1.54534696925536
  H   4.44378356834379     -4.79855358655317     -2.45259420953178
  H   4.96581290688123     -3.32120206876317     -1.64546142430239
  H   2.37326934457799     -3.82837601775884     -0.58486137101691
  H   2.18729438337832     -4.17232062630099     -2.30860482725162
