30
Coordinates from ORCA-job 12708optt
  Br  0.97110155798765      1.76851713137705      2.87012158615087
  C   2.07620532813496      1.39642487737863      1.35752541185132
  C   3.31205869772044      2.03485681390677      1.28615643134490
  N   3.45098050767883      3.39353568427493      1.61576589447939
  C   3.06023488709069      4.32557856161568      0.53362745998615
  C   1.59381288875742      4.17094890266922      0.10137434348807
  C   1.42144432034269      3.23775683249133     -1.10207021931192
  N   0.03352225406046      2.90158078914731     -1.43525115501043
  C   -0.95410995832322      2.34226294368128     -0.64380783306584
  O   -2.09381075579123      2.80248988898740     -0.70943586951868
  N   -0.71808834655748      1.28427253978894      0.19187907701403
  C   0.22257111640997      0.15642245055888      0.18876948952687
  C   1.66582113732809      0.51635280658148      0.37128606983633
  C   2.59463709169785      0.13096510515166     -0.60975451918633
  C   3.93342054105171      0.61838979292328     -0.60411277973185
  N   4.92107987149150      0.32182422466105     -1.37505794129852
  O   4.22543739745261      1.60385783376611      0.31758903207134
  H   4.39974435095837      3.60004294149369      1.90471601609114
  H   3.70777436874030      4.19881873607055     -0.34643824055746
  H   3.22403494796818      5.33458835223089      0.91918432242339
  H   1.19219439781895      5.15513308955121     -0.15978687006156
  H   1.00718437860987      3.80357245324565      0.94454925818076
  H   2.00278218631858      2.33267398715219     -0.99061237957734
  H   1.81530226336948      3.73205254415302     -1.99387598831702
  H   -0.42343457003560      3.63539278418603     -1.95713849907242
  H   -1.55181640226663      1.12158951203898      0.73263102531836
  H   0.12656091406242     -0.41083185898352     -0.74074790531491
  H   -0.12908895895346     -0.48498046572820      1.00176208423381
  H   2.28731590640862     -0.49070772569885     -1.43979640801927
  H   4.61412768046791     -0.40638152867277     -2.01405089395317
