22
Coordinates from ORCA-job 12702optt
  Br  1.39860543158640      0.56476828407512     -0.70818943546252
  C   3.15484601629958      0.14964267115698     -0.12146988431957
  C   3.73123201082227     -1.09692775212165     -0.02119105883624
  N   3.11561145315449     -2.32313048236916     -0.07335524669796
  C   1.68402884573338     -2.51593489904338      0.10931382484340
  C   0.98171923325502     -2.81087126925027     -1.22179990811154
  C   -0.46099956665648     -2.94143925458085     -1.04212025059468
  N   -1.59247799806570     -3.03900675353076     -0.88328889367371
  C   3.84313031721126     -3.54356011740757     -0.18559637317040
  O   3.21186127488363     -4.60232151446644     -0.28536830949536
  C   5.25070302864945     -3.40497399407901     -0.13788987494378
  N   5.88324482533230     -2.26767115374152      0.05088381380765
  C   5.18424038213792     -1.12097113182945      0.14881016108309
  N   5.91366534636116     -0.03897417081069      0.37137816579010
  O   5.23607181196811      1.16782629642838      0.47168728418904
  C   3.93027223382797      1.34166271299491      0.14984752364252
  O   3.50664113815348      2.47188397189618      0.13678197601757
  H   1.25980713576410     -1.64769489453947      0.59728236111870
  H   1.56600868140946     -3.38398801250255      0.75477578014670
  H   1.37822865829465     -3.74580961171658     -1.61895145696660
  H   1.16837196955530     -2.00878214158325     -1.93571113775696
  H   5.83218777032220     -4.31372678297893     -0.23382906060946
