24
Coordinates from ORCA-job 12717optt
  Br  0.89822443831146     -0.09620111508366      0.50891449843389
  C   2.75299863473369     -0.06455258122460      0.21256085881194
  C   3.45972431571931     -1.22337321566499      0.05004758547268
  N   2.87279013509256     -2.46547535352014     -0.10141342626525
  C   3.59915562475781     -3.58779874045364      0.14126497876577
  C   4.92641627017208     -3.56922463946182      0.36335226991353
  C   5.66670050192297     -2.34428938149473      0.22830159671423
  N   6.93788900430168     -2.19784053372148      0.25522131407803
  N   4.86251274134796     -1.18657781189141      0.04430932966716
  C   5.49589169598650      0.03645285515562      0.02531555982853
  C   4.82681595147763      1.19220938286666      0.07623566135934
  C   3.38052331267832      1.24745205693622      0.22850584087875
  N   2.70227521446277      2.32995115571358      0.38454404143341
  C   1.67299997519118     -2.64473314451963     -0.98980011329882
  O   1.62970439112797     -1.95971763912451     -2.01184777411075
  C   0.74492588734169     -3.62707675857309     -0.54273551765358
  O   0.81474503743974     -4.29313446338935      0.51693509784120
  H   3.01268453127305     -4.49648299508790      0.13014601776537
  H   5.46903478000871     -4.47988091113426      0.56428355502558
  H   7.37206805438993     -3.10559487657082      0.38638454490498
  H   6.57081679039974     -0.03435002019946     -0.01550940594677
  H   5.37993090432817      2.12242354372865      0.05152006993300
  H   3.33582753991446      3.12721673496400      0.36683482033419
  H   -0.07865573237944     -3.77040154824920     -1.25937140388643
