24
Coordinates from ORCA-job 12713optt
  Br  1.86454141504957     -0.07972192925761     -2.46815358002674
  C   3.22926515787832      0.35425967996664     -1.22392570745427
  C   3.87097097056186      1.54568562147408     -1.25009680013726
  N   3.25256776253187      2.71133180121996     -1.78799976728833
  C   1.98381030550639      2.99707415667534     -1.17578856270810
  C   1.75617979434855      2.60864241493129      0.08092482398436
  C   0.52366685243891      2.46561222424722      0.85708022052282
  N   -0.48539201779700      3.30230835084576      0.70342060125124
  C   0.41324937586114      1.32275909930122      1.74344337644585
  O   -0.52396993452098      1.03724089994205      2.46955703594899
  O   1.41982157465523      0.24015463675828      1.59249632686241
  C   2.69601931532237      0.53428254417335      1.83317597057449
  C   3.70111536054742      0.14549806369775      1.02810452285365
  N   3.42291029567431     -0.54711938093741     -0.20497435702160
  C   4.93680309834471      0.95149696571017      0.88518451219980
  C   4.94786250277946      1.65985368140551     -0.25272893024413
  Br  6.38551488479408      2.83530627132008     -0.67383042062840
  H   3.24239832480170      2.77572892504740     -2.79335834343414
  H   1.24085686345056      3.45462026946005     -1.81667349838836
  H   2.63092827887745      2.22901949005569      0.57412237565585
  H   -1.25402180017689      2.96600243675682      1.28397951490499
  H   2.90588747707486      1.18467525230696      2.68246941677361
  H   2.76359899310745     -1.30802684887945     -0.16205928127966
  H   5.72241514888860      1.02031537377883      1.62563055063294
