26
Coordinates from ORCA-job 12718opt
  Br  1.03904247292818     -0.56172263149766      0.17609467647288
  C   2.90216288692265     -0.30518990764329     -0.00236345999290
  C   3.69597148929577     -1.38182452929282     -0.07644935369152
  N   3.38747569929249     -2.72370561367809      0.09300825010741
  C   4.54569760324614     -3.51550673404563     -0.27011546044552
  C   5.68429033044651     -2.51595619569825      0.01436899032016
  C   6.84302819230639     -2.82384661788754     -0.83584965883290
  N   7.71665775861848     -3.14813230922726     -1.50287127791650
  N   5.06153930052838     -1.24652069964363     -0.28448905229832
  C   5.60060236102663      0.01474941223035      0.19072555856178
  C   7.06838562242354      0.20309055219087     -0.00982478147347
  N   7.35653075125760      0.52177131450005     -1.41356255277632
  C   8.59149855358592      0.55669093796717     -1.92601799655450
  O   9.61417489594369      0.28983161212132     -1.32253483587300
  N   4.85023665693415      1.11740594938654     -0.03509490028493
  C   3.49313316420626      1.04501054665271     -0.12571234989709
  N   2.70531809725270      2.05827554124198     -0.29557994416998
  H   2.47367197102594     -3.01165610890586     -0.22262176261851
  H   4.56224535773191     -3.79498344271906     -1.32823871785971
  H   4.63409215533947     -4.41312045353948      0.34092107798000
  H   6.00200517762802     -2.56081181235191      1.06936094931765
  H   7.66558297449188     -0.66838520939557      0.26250043609708
  H   7.38861888489386      1.03446489995143      0.61995845593279
  H   6.57712888000014      0.88185479295446     -1.94481575543350
  H   8.60481588679581      0.85368102721341     -2.99028259151540
  H   3.29509287587727      2.88853567911579     -0.33351394315568
