22
Coordinates from ORCA-job 12712optt
  Br  1.04006632223409      0.86451277542233      2.57153895408023
  C   2.47827846205300      0.89140164350342      1.33815779572301
  C   3.42212901125390      1.86692351818532      1.43894970816280
  N   3.10887974142758      3.09721698848908      1.99565351840334
  C   1.92225454891524      3.70386191497001      1.45304101826412
  C   1.49996508091449      3.20763488181159      0.20769103455465
  C   0.23125258368764      2.80688984548944     -0.15165945242739
  N   -0.05766075560574      2.01435880562736     -1.20488188808968
  C   0.48233250067123      0.86642050288341     -1.50957483867682
  O   0.55234223744174      0.24524996743889     -2.53813823776529
  O   0.98018476030131      0.07847452391663     -0.28331699892327
  C   2.26007287808221      0.25679725805415      0.04494002014463
  C   3.28575227234862      0.00090971238290     -0.81320383694648
  C   4.65579565412468      0.35574441438674     -0.54486549650724
  N   5.72907792806383     -0.08734410364532     -1.07479279069503
  S   4.90695597552696      1.78119283817314      0.51655382150918
  H   3.87800835483468      3.69321413904646      2.26222378998175
  H   1.22664791873372      4.11450188875564      2.17660637130824
  H   2.28658533318740      2.85947697178367     -0.45749442407346
  H   -0.61659582245726      3.15319751989786      0.44097875937509
  H   3.05358638079148     -0.44150834450639     -1.77408090251852
  H   5.49608863346909     -0.83612766206641     -1.72632592488383
