23
Coordinates from ORCA-job 12710optt
  Br  1.69739063453183      1.76101688528252      3.15230516958348
  C   2.85166945496014      1.21479252353846      1.78017108671844
  C   3.65643367834930      2.03468653879954      1.09402071169436
  N   3.52831847208547      3.41087644121532      1.10772302387456
  C   2.33481806035490      4.06096953690710      0.70717527436812
  C   1.16997287371626      3.62114923916436      0.10007563597642
  C   0.67100775646151      2.41255306889391     -0.43217134574937
  N   1.36991943342712      1.26714845273608     -0.47367555528173
  C   0.89948317629005      0.10354140531218     -0.91112617514017
  O   -0.11278304152086     -0.23797203013458     -1.50083197175422
  N   1.90998652068863     -0.96556772066039     -0.56207134061307
  C   2.94714045055036     -0.33409495800987      0.08663527446317
  O   2.63491740437049     -0.05476139026989      1.38820057758263
  C   4.11567393516140      0.15427663594011     -0.39033151077772
  Br  4.66017758464191     -0.32799414961020     -2.13803106762741
  C   4.61786685737261      1.41620878314694      0.15097500515651
  N   5.62766902981155      2.10189544478881     -0.23011184892232
  H   4.37682376898999      3.87190244989790      0.80679423310133
  H   2.37011128614915      5.11353914717206      0.96064294116318
  H   0.45609964972929      4.43535547127287      0.01407860193495
  H   -0.34681892270349      2.43521259556140     -0.82166936256107
  H   2.17980250056576     -1.49558114921336     -1.38078722034253
  H   6.16331943601659      1.59484677826871     -0.93199013684753
