26
Coordinates from ORCA-job 12719optt
  Br  1.26527335579341      0.02128418490860      1.16193407004642
  C   3.04936165020010      0.06065934758705      0.54057994549792
  C   3.66670731162873      1.20173065350369      0.17191006653400
  N   5.01959901170551      1.22936552478713     -0.16278261070698
  C   5.74818755900250      2.24842190792524      0.60027481777989
  C   5.14556537045646      3.60759013556556      0.32400964582793
  C   3.64313509210436      3.63996684184274      0.44288893907285
  N   2.96823164740033      4.67809068226190      0.73877322272921
  N   2.99498474754039      2.45751425926113      0.08521425286685
  C   1.78597097165323      2.48421374965571     -0.66073869188738
  N   0.96502408425071      3.42547029381014     -0.80222698180527
  C   5.70519583798856     -0.00229980621869     -0.31763226039496
  C   7.02753907775166      0.02080005286420     -0.83170240553281
  O   7.67202856302906      1.02378207297404     -1.20951392922765
  C   5.05755129397302     -1.19634404575594      0.00107272180903
  C   3.73431542988287     -1.27013203230244      0.48336975454854
  O   3.13795985886772     -2.30463061623801      0.81461718233477
  H   6.78433362054013      2.22271232256433      0.27838481101448
  H   5.69088439076588      2.00727678865593      1.67089210503085
  H   5.37851457794542      3.87875530376557     -0.71025017292778
  H   5.57259072808136      4.36355911426999      0.98315586812030
  H   3.59964207394820      5.45863070897686      0.90067448069318
  H   1.64434917995179      1.54378605909777     -1.18610982182853
  H   1.22676257539813      4.22236467479885     -0.22382726529071
  H   7.48897882027453     -0.98079616093093     -0.87762796673308
  H   5.59031316986586     -2.12877201763043     -0.13533977757110
