23
Coordinates from ORCA-job 12721optt
  Br  1.01744663792078     -0.20084086089730     -0.33284049963661
  C   2.92330588575981     -0.06714392536189     -0.21211641634626
  C   3.61584238298425     -1.22214244813166     -0.07774236465302
  N   2.99766941703257     -2.46500389971377      0.00430950459056
  C   3.70168684636375     -3.63397578510835     -0.03122024237973
  C   5.03873188958793     -3.62812393695024     -0.17306756648467
  C   5.75485715020388     -2.35661128060423     -0.31121700508432
  N   6.95317039273823     -2.25977206834390     -0.73019551870351
  N   5.00918027314989     -1.21446729336527      0.03527011718412
  C   5.69294415724189      0.04583030896260      0.40873985982114
  O   6.81365745345284     -0.03344675205167      0.88239544110062
  C   4.92914349493219      1.20709115852729      0.18659189984541
  C   3.56766862240694      1.21512393565036     -0.15716185802713
  C   2.87545614929381      2.44933992589662     -0.36765769815212
  O   3.39152151916704      3.57298108128697     -0.30220197973061
  C   2.93038655571660     -4.83697496647108      0.06619463400975
  C   2.26118850086138     -5.82862098457842      0.14409094151587
  H   1.99151375755989     -2.48285176755741      0.00315049401197
  H   5.59105365271642     -4.55279169456861     -0.23145668060302
  H   7.31877022029618     -3.19569304718624     -0.89214315411333
  H   5.41878212966541      2.15375807167842      0.36363142465425
  H   1.80087995944030      2.36433758777176     -0.59656766762195
  H   1.67214295150794     -6.71100135888397      0.21321433480260
