27
Coordinates from ORCA-job 12723optt
  Br  0.99836868697558      1.04636338438501     -0.38524059621317
  C   2.84229497966370      0.54191769548256     -0.44488989791705
  C   3.18262301631363     -0.83456054283846     -0.50815938101640
  N   2.25813040058033     -1.77870921437054     -1.00775909643732
  C   1.96597426368645     -2.88415510054761     -0.11773858588031
  C   3.01766131359309     -3.97163455012961     -0.24782137238970
  C   4.43478782138857     -3.66647271379475      0.18626139622489
  N   5.14272354118609     -4.51695885807304      0.82719884278276
  N   5.07037401002743     -2.50288402999894     -0.25692862521128
  C   6.46744066936987     -2.61055993740650     -0.37942650477817
  N   7.33390067235577     -1.70388122300492     -0.24601648155208
  C   6.88205497101407     -0.39569590846473      0.20291701254383
  C   5.43095503679725     -0.17320692663819     -0.01728492449705
  O   5.09772700129595      1.15896927186256     -0.07953180598332
  C   3.76213535349764      1.56462438488700     -0.13503271013710
  N   3.51155315060412      2.80819556309740      0.07631995164240
  C   4.52322043619886     -1.16981864580303     -0.23897287654326
  H   1.40771842205137     -1.29538362384372     -1.26213999218727
  H   1.00726819527012     -3.31776804217906     -0.41406584657871
  H   1.88409102714424     -2.55712319156648      0.92822523349103
  H   3.06991937083496     -4.24331899298302     -1.30675151234262
  H   2.69635196824630     -4.85032047364162      0.31503381778896
  H   4.60302584617663     -5.36261904203113      0.98743355998949
  H   6.78325777349478     -3.61478456030135     -0.63679661887880
  H   7.44197352638641      0.37523989157339     -0.33604227874427
  H   7.17368284951820     -0.28960799798369      1.25919624548918
  H   4.38878569632847      3.28215338431254      0.27401304733532
