26
Coordinates from ORCA-job 12739optt
  Br  3.71273245354592     -0.96740638262722     -1.80684419260038
  C   2.44393301554490      0.15681827263350     -0.64940233368844
  C   2.96119391747705      1.52300277662809     -0.18723604380801
  N   2.79286964371650      2.63638564194585     -1.04153696832208
  C   1.56966604793770      2.88232893428519     -1.75237499068190
  C   0.54255652723563      3.75228374617395     -0.99042754759862
  C   0.29819563598312      3.10171227809735      0.33733795004995
  N   -0.54092213567705      2.16594922296503      0.43768551354382
  N   1.15656285336688      3.56914454109114      1.35873236867259
  C   1.62405937160172      2.87361781194108      2.45474504714799
  O   1.96696424166203      3.41137268531808      3.47024652541200
  O   1.62532676283201      1.53627049753819      2.28847040772082
  C   2.39918580939683      0.98152088773132      1.24370748772521
  O   3.82652874942264      1.03166105567028      1.72682256936257
  C   4.27372471081928      1.52085639469363      0.54501000160985
  N   5.42308043905745      1.92932842726585      0.22817720214634
  C   1.99710208125447     -0.25397496349403      0.61064323401305
  H   3.33266529501902      3.44539649748172     -0.77285887438020
  H   1.11606193006004      1.91041678681930     -1.95454824563142
  H   1.79023492370157      3.36195616658130     -2.71005559948962
  H   -0.39138780217949      3.79297830781531     -1.55014109181388
  H   0.93274063871977      4.76730790130330     -0.87115116989574
  H   -0.52344518321974      1.72061168139411      1.35274466671892
  H   1.38301406812421      4.55067114610097      1.36462144241268
  H   6.05887164853169      1.81188377651564      1.01678901580616
  H   1.73148435606579     -1.21409409186897      1.02084362556835
