24
Coordinates from ORCA-job 12731optt
  Br  2.95310090440137     -2.05168490663062      1.86443832819299
  C   3.23107185310563     -0.85100956507508      0.25875581320566
  C   2.68284316811846      0.41951246130892      0.32192808343826
  N   1.42571607459566      0.55180534516202      1.00198761196735
  C   0.75591519198702      1.62878806610816      0.47916838922546
  C   0.39586298011086      2.77581241260649      1.05735385601810
  C   0.30789464733921      3.97237790805419      0.21377088596861
  N   -0.07053919431330      5.12975223327708      0.59810573119547
  N   0.75020467038015      3.82825850693396     -1.11705412148811
  C   1.86417430876699      3.31620162703151     -1.45157909119688
  C   3.09465151618856      2.80520588271767     -0.73727737592659
  C   4.16872907757452      3.73540218471141     -1.01395008033120
  O   4.03044680389331      4.76621817827590     -1.66908207806471
  C   3.43009980791005      1.53187896545621     -0.19451724308784
  N   4.82607981824586      1.28700226554106     -0.15646074197801
  C   5.26841590617016      0.11551981168208     -0.16877507279150
  O   4.49578172068665     -1.00844136827595     -0.24423341203822
  H   1.55050871972527      0.57086366455411      2.00916944649529
  H   0.66541988719691      1.54155434237896     -0.59332715741804
  H   0.44682200826111      2.91832690713392      2.13123635025785
  H   -0.38027553151608      5.07257951025157      1.56659632855359
  H   2.04234630713952      3.33759012533551     -2.53037304492523
  H   5.14640812267056      3.49325374119424     -0.58072854845315
  H   6.32732123136151     -0.11376829973337     -0.12915285681917
