26
Coordinates from ORCA-job 12730optt
  Br  1.32900898515629     -0.57551728092497     -1.35131414502046
  C   2.93901726872694     -0.15678091440060     -0.44939805513171
  C   3.50767482101196      1.10198553154268     -0.46863407347377
  N   2.80363097691928      2.22811250241793     -0.93013176432404
  C   1.51258362690931      2.53963973813149     -0.34705150694394
  C   1.71579770610082      3.13858970553189      1.05880618238366
  C   0.46448205685531      3.61819157266899      1.63420259221823
  N   -0.53345588209438      3.99576340320385      2.05657390469279
  N   3.43530845416371      3.42162621415146     -1.28518084167468
  C   4.70891565773236      3.52464684290455     -0.96895141678048
  C   5.44558994130406      2.55644872278619     -0.30013999404583
  C   4.85075761088440      1.30748577718972     -0.03707636981978
  C   5.57492884110302      0.21654226217593      0.57130243368215
  N   6.76951000503316      0.21300188982403      1.06562197884351
  N   4.88134526765500     -0.97971473245040      0.64512246998035
  C   3.63021566479156     -1.28461044587019      0.13095512289210
  N   3.12871609100660     -2.47204331287604      0.17767496047213
  H   0.88247072604794      1.66016706840658     -0.28728690361377
  H   1.03722294374544      3.27509338078863     -0.99423238189935
  H   2.41449335417504      3.97419382012897      0.98635633903084
  H   2.14809413077763      2.38500031134931      1.72052583890963
  H   5.16571555438265      4.46212515743450     -1.26703945709918
  H   6.48089385712536      2.74721559861117     -0.05677470614006
  H   7.18382886209918      1.13483153934011      0.99092492041533
  H   5.40535518293905     -1.72944276425913      1.07051771450789
  H   3.78489829544820     -3.11355158780667      0.61762715793846
