29
Coordinates from ORCA-job 12738optt
  Br  0.77867274296722     -0.95220802039543     -0.69319157821538
  C   3.00022882210181     -0.04813238219852      0.19331764045746
  C   3.85683023468559     -1.06634747372306      0.43911557764456
  N   3.57397871712794     -2.40516103076255      0.84284168691303
  C   4.71501797249686     -3.19400478871546      0.37064588415750
  C   4.84478148290860     -4.45739675009565      1.20749366687863
  C   5.90090284719434     -5.43267683044506      0.75427849258896
  N   6.62163169654781     -5.37742633010814     -0.28510984960315
  N   6.11171229554058     -6.54926429978171      1.57576689398400
  C   5.48595023933863     -6.89026787649312      2.73675461157070
  O   5.75972412009721     -7.88206999192083      3.36967038515450
  C   5.90207327351404     -2.21183144916796      0.49282786966612
  C   5.23688332009901     -0.88585593658134      0.21563728531759
  C   5.75166228283752      0.29796697959682     -0.21250376517153
  C   4.86679226107264      1.41332418662340     -0.46418816600466
  N   5.16193595146957      2.60992667859878     -0.86598907626495
  N   3.52090121485169      1.12332204798723     -0.24152771447133
  H   2.67905955119388     -2.70040735029520      0.45839149139158
  H   4.58775530248656     -3.45854240247091     -0.69033695157872
  H   3.88117742602450     -4.97702418783840      1.21981712181974
  H   5.04091817302959     -4.15651180519916      2.24002718530890
  H   6.41180130424830     -4.54689718270719     -0.82975407319236
  H   6.83110236725971     -7.18386362716281      1.25144664852520
  H   4.70502237246487     -6.18688667798714      3.05240030109352
  H   6.73058339681391     -2.43290710073946     -0.17941697539578
  H   6.28443630920297     -2.22971313973542      1.51967576558178
  H   6.80815633692323      0.43207517244091     -0.40692902320320
  H   6.16689460402262      2.68924372282494     -0.98363392261481
  H   2.89241338147866      1.88753784645254     -0.44752741233792
