22
Coordinates from ORCA-job 12749optt
  Br  1.95462613724586     -0.08971391970523     -3.46348745764923
  C   3.07513209877362      0.22409366405870     -1.94662470131103
  C   3.59982243795654      1.43968157453625     -1.69262558697947
  N   3.12443709309847      2.63886938791397     -2.38739009825107
  C   1.92973502812857      2.82610589800807     -1.63122470809908
  C   1.84858006766970      3.46598163461516     -0.45188273384662
  C   1.05944159085619      2.72807277051124      0.51313079338118
  N   1.50409349943240      2.59999743598867      1.70510068672657
  S   1.06342131195991      1.18108445039408      2.47287680327111
  O   -0.33404156995861      0.87689310348925      2.24403819898650
  O   1.48532807795572      1.31206271998286      3.83724722857917
  C   1.95704013741676     -0.02945700329756      1.56383603064804
  C   3.00749245944556      0.13822234407877      0.68042372183733
  S   3.18706839403065     -1.00512056966176     -0.70782785157742
  C   3.95945753025428      1.18016828956361      0.55201247467405
  Br  4.72196973294445      1.92274732979939      2.14709004700079
  N   4.34413503182973      1.72707013238125     -0.57221897277185
  H   3.79218084760209      3.36460705983627     -2.13871454506260
  H   1.13197632015062      2.15665656986759     -1.93562007168232
  H   2.67781431064847      4.04956018287733     -0.07038955149009
  H   0.24822833016590      2.09780629155417      0.13224705002138
  H   1.37106113239309     -0.93838934679209      1.53300324359466
