25
Coordinates from ORCA-job 12752optt
  Br  1.68766336199448      1.56204365752802     -1.96606589976000
  C   3.03972607839668      0.55698041623368     -0.96765016693606
  C   2.75506248865124     -0.75722635154078     -0.66494256378966
  N   1.61237434080310     -1.44522129633240     -1.13034214686706
  C   0.88345987919048     -2.23981847792767     -0.15654984781019
  C   1.50312103419739     -3.63097952215604      0.04326313937579
  C   2.83656765236189     -3.61191821855687      0.77522428672896
  O   3.80350667873262     -2.86661775192366      0.07689446765979
  C   3.66753910889017     -1.48127377326281      0.18074619051173
  C   4.78662780719215     -0.70862981162217      0.53943138472776
  O   5.82959931500224     -1.05470043918453      1.34328226918700
  C   6.58074520098427      0.07759130629508      1.41035875970309
  N   6.12239513872751      1.08263467458752      0.74642176025856
  C   4.95511665972810      0.61039614591407      0.16347976629660
  N   4.10006001922976      1.30103597173883     -0.63074579807830
  C   0.50502843728045     -4.52947457270797      0.71325114988063
  O   0.70310634119917     -5.18895998744006      1.69911806861838
  H   1.00072794937738     -0.81573884167985     -1.62982096031712
  H   -0.13270087484424     -2.36750280380321     -0.54082695208264
  H   0.81299283224315     -1.73865556339841      0.81940846729838
  H   1.65618481017581     -4.03726875672435     -0.96612249280651
  H   3.22158909902122     -4.62932962868911      0.86349069074999
  H   2.69901956698875     -3.20597017445359      1.78364436535596
  H   7.49633154972906      0.01302880865227      1.97411399417936
  H   -0.49284447525288     -4.55842500954596      0.22393806791556
