27
Coordinates from ORCA-job 12753optt
  Br  0.98052012035354     -0.13306378212069      0.15782643628275
  C   2.87936721671438     -0.16914275570053     -0.10026117768804
  C   3.58163050340009     -1.32110702351575      0.02829440200123
  N   2.92230714432151     -2.49923619669304      0.40901935643752
  C   3.42496790917883     -3.75677417781708     -0.10592733528350
  C   4.89400443904414     -3.85556925448775      0.23129176954454
  C   5.65104940868237     -2.65966348025300     -0.31973497011919
  O   6.74561592032095     -2.86959963779254     -0.84677678786777
  C   5.02744320964559     -1.35383782628269     -0.18466461270035
  C   5.80158875965420     -0.16163417015459     -0.24584865103818
  C   7.30928668372206     -0.15732084637317     -0.08582846012539
  C   7.72181750355690      0.43461351377353      1.26079173004599
  C   7.39010570108798     -0.41325687084898      2.45025603516561
  O   6.98096648974778     -1.54205918055710      2.42346505139573
  C   5.28835324000712      1.15080576851259     -0.35747387289547
  O   5.94237205486374      2.19837265039740     -0.40529384506593
  S   3.50457444681821      1.40509754763050     -0.47185581529774
  H   1.92128814517717     -2.41312568026966      0.32525203166963
  H   3.29560891520157     -3.83537962322773     -1.19588308951402
  H   2.85593225113799     -4.56452811026751      0.35935555099691
  H   5.34434183928099     -4.75426114467335     -0.18827097249160
  H   5.01981914612615     -3.86686737400739      1.31833807872521
  H   7.74294796864448      0.47219830198978     -0.86594240005490
  H   7.71050683384612     -1.15783353375391     -0.19006913601421
  H   7.27243424553017      1.42172436116739      1.40913171298952
  H   8.80806001636860      0.59962003873494      1.30878107773696
  H   7.57008988756724      0.07682848659037      3.43302789316468
