23
Coordinates from ORCA-job 12750optt
  Br  0.90236664316314      0.13227793144671      0.07111177175228
  C   2.78885151968962      0.06706551531271      0.07242046548117
  C   3.38048564330509     -1.16950398981469      0.07305005632559
  N   4.79401521635989     -1.24017313430173      0.07373712465267
  C   5.54201182831926     -0.13491026598298      0.07387639207043
  C   4.98884376541437      1.11867303407014      0.07342340276514
  C   5.94580241687354      2.20697758844957      0.07369984302842
  O   5.71668503623527      3.40094462984763      0.07352519770258
  C   3.52115692757896      1.31400768954231      0.07271422447047
  N   2.91773848368656      2.45756699199900      0.07234506457063
  C   5.29738499426172     -2.59731818834057      0.07436373686796
  O   6.50792839948474     -2.86310329808832      0.07501905193388
  C   4.09462114204069     -3.33609663669618      0.07403335188436
  C   2.94790710230779     -2.52090881928176      0.07328171980067
  C   1.81698199182338     -3.39017306388332      0.07334917350906
  C   2.30707269681840     -4.66913493297094      0.07397511703145
  N   3.69057648337089     -4.64654373282599      0.07438095841056
  H   6.61263410190099     -0.31017212962260      0.07440669911859
  H   7.00073791208706      1.86076275111656      0.07419368845574
  H   3.60785358154378      3.20241277560601      0.07264222043015
  H   0.77621877267635     -3.11471653561937      0.07295899504703
  H   1.77629421790731     -5.60710000455012      0.07420036395889
  H   4.29683112315114     -5.44483417541207      0.07529138073228
