20
Coordinates from ORCA-job 12764optt
  Br  0.67498737615302      0.12039587202223      0.00781173064950
  C   2.54872834010377      0.05091406435179     -0.23795057088823
  C   3.33472757132099      1.18439706298814     -0.08985198886903
  N   4.73417737133167      1.08404085652740     -0.00440283950569
  C   5.31759087104487      2.30176293020595      0.00236410714192
  C   4.33975554104625      3.26774895490363     -0.04504471035713
  C   4.55222429432645      4.68931064258690     -0.03989197936909
  O   5.63666478691325      5.24851017733466      0.00381917367737
  C   3.02806363208708      2.60596062845146     -0.11471404299290
  O   1.91206359734592      3.14345759884935     -0.18872460875570
  N   5.48285224957059     -0.05499046216850     -0.02279877588346
  C   4.88943376267603     -1.17056004009126      0.06764110609991
  O   5.64261266156215     -2.31941719320427      0.08219500628653
  C   6.91117956497576     -2.25709440970944      0.58143937500490
  N   7.73371940348793     -3.19479969920621      0.46015986943204
  S   3.19419269063067     -1.54611091076084      0.18955632637944
  H   6.39023131331609      2.38812137860094      0.04726361416936
  H   3.62050180432607      5.28119578748096     -0.07830275035064
  H   7.13931719522428     -1.33646133787136      1.10767831087495
  H   7.32997597255707     -3.95638190129153     -0.08624635274403
