25
Coordinates from ORCA-job 12763optt
  Br  1.11467588411379     -0.31307229476986     -1.35312315435265
  C   2.89168326237508     -0.10974409816782      0.18338267994922
  C   3.60119846638694     -1.26781972940632      0.43482206530329
  N   2.94681545721400     -2.51068302544482      0.63468524218942
  C   3.09913927124218     -3.51187059144315     -0.41124591437669
  C   4.45044160750601     -4.21280754276970     -0.32664691458750
  C   5.63463148560256     -3.27109532418780     -0.47648775643843
  O   5.74536739393389     -2.31395711875296      0.57331576220063
  C   5.00682544904620     -1.17629854391585      0.39410116150295
  N   5.69118491915509     -0.08621121146411      0.18731479488060
  C   5.01868234946257      1.09042973736426      0.00489484082580
  O   5.54158340623637      2.17590235694600     -0.16118385077875
  N   3.60873166606708      1.00646231164181      0.00320852140700
  C   2.34277351654343     -2.76824262935145      1.83289076732886
  N   2.19444374775518     -2.02072240314058      2.85121984868834
  C   1.78842036327895     -4.12176399054303      1.96359357932178
  N   1.36988908622824     -5.18214311602050      2.08061323921777
  H   2.98198741988321     -2.99110298310576     -1.36438117479808
  H   2.29197526566667     -4.23910337427707     -0.33623656430613
  H   4.51560185141484     -4.96615300370317     -1.11755788874545
  H   4.52593986640396     -4.73369391241065      0.63200741013101
  H   5.58918815029418     -2.74380671904406     -1.43581135229083
  H   6.56555421225726     -3.83741858790715     -0.44671652055122
  H   3.13288398619433      1.87352318202264     -0.20646356868630
  H   2.60238191573790     -1.10360738814885      2.66980474696534
