29
Coordinates from ORCA-job 12768optt
  Br  0.60756056270282      0.02990923630739      0.03986620164457
  C   3.16319351734202      0.11002657221670     -0.44641093219160
  C   3.78754795674960     -1.09715192123806     -0.36804365103160
  N   3.09025530313814     -2.29745891977624     -0.67277887898792
  C   3.65208662788684     -3.50454838529913     -0.11081055197509
  C   5.12094647845568     -3.55594626526865     -0.53838531897874
  C   5.15111779474673     -3.47119697571817     -2.04776256749446
  O   5.91729909742027     -2.81369090060291     -2.69834086681429
  C   5.87182405540539     -2.43325752108557      0.16836264957295
  N   7.29938445233063     -2.40217431115469     -0.11831401551139
  C   7.91865185621164     -1.32278997152254      0.65184842831603
  C   7.36911477862376      0.06809994763874      0.32990891465465
  C   5.88357206343104      0.05980772894585      0.09539504004418
  C   5.23046650472376      1.33505049232216     -0.01125685749480
  O   5.77406568104437      2.43922217374017      0.09650810677937
  N   3.86084480029037      1.24005786175722     -0.24090466032329
  C   5.16783755389641     -1.10330127975748     -0.05263584720532
  H   2.09792734310205     -2.16417683345969     -0.50075466719035
  H   3.11030703082389     -4.36345218723283     -0.51344914352609
  H   3.59400349837692     -3.55580233937112      0.98710256818143
  H   5.56883926380583     -4.51813720687444     -0.26364306708893
  H   4.39006995084962     -4.09958567415983     -2.55234921961769
  H   5.78846325801730     -2.65360780538613      1.24022161601013
  H   7.41244030992072     -2.22129014313567     -1.11210029096445
  H   8.99818613383401     -1.35229310214042      0.49217793342827
  H   7.74576617653047     -1.54928273036201      1.70875065801932
  H   7.85880457431922      0.47026389399750     -0.56478041556284
  H   7.60873337101005      0.77291277091139      1.13060121376319
  H   3.37269000501024      2.12579379570854     -0.28202237845522
