28
Coordinates from ORCA-job 12777optt
  Br  2.02824570786574      1.43910845807267      2.90266497011164
  C   2.52307084077331      1.23204429812826      1.07288622995362
  C   3.64575832130187      1.89123712812750      0.52336728067169
  N   3.90051759746753      3.23917796368067      0.88554683082478
  C   2.96170142967101      4.15925081543787      0.21855016571113
  C   1.54325987304118      4.16544044553892      0.78240644374851
  C   0.52122847132745      3.08687991760589      0.42392579178042
  O   -0.42989914610155      2.94114801744758      1.16088422550893
  C   0.56600566196185      2.33978035437977     -0.89616074127155
  C   -0.11072331797776      0.96363678690100     -0.82046016805006
  C   0.49019383008322      0.00754944315534      0.24008348954961
  C   1.97901544836346      0.19987756175727      0.25234436594587
  N   2.68291676491655     -0.34825425238329     -0.70219078288803
  C   3.94736219020027      0.13648770081881     -0.89204261988825
  N   4.35471589102415      1.36654762351420     -0.43793985538633
  C   4.78820355619579     -0.53050723447135     -1.81510361909472
  N   5.48942860454084     -1.07411174407029     -2.55879978135602
  H   4.83297815714725      3.45237590050924      0.54749533097708
  H   2.93754795922951      3.97159528933737     -0.86423056185730
  H   3.36862883889779      5.16272085011362      0.35863378929286
  H   1.06663079639867      5.10024110167623      0.45949972540713
  H   1.57673678445301      4.19465618940200      1.87261202897997
  H   1.58792629445227      2.24634604000071     -1.26533704714559
  H   0.02670269587506      2.96215382614096     -1.62146433121026
  H   -0.01015959281781      0.49548497412821     -1.80134646082090
  H   -1.17368338001712      1.09859993541259     -0.61495944991881
  H   0.23924530055440     -1.02092413161383     -0.01974369275421
  H   0.07244442117203      0.24245674125203      1.21887844317877
