22
Coordinates from ORCA-job 12776optt
  Br  1.14558181989365     -0.04503826602427      0.01102200861763
  C   3.02313331666070     -0.17489028174184      0.03723553299527
  C   3.69480720806103     -1.37248646974173      0.00933250905892
  N   3.03172685272634     -2.56583138591717     -0.03493529834636
  C   3.73374018039195     -3.67048928686912     -0.07062008281073
  C   2.97273526134158     -4.96435040287640     -0.11174101773802
  C   2.94023033575070     -5.73075435285151      1.18859255875158
  O   3.36037738928326     -5.34857012335027      2.24226021090859
  C   5.14693941415931     -3.68014754900240     -0.07170548732588
  C   5.84299717702485     -2.46402824298444     -0.02173642196768
  C   5.14347346874367     -1.25979047344890      0.02271331626251
  N   5.80990419511226     -0.08693299180846      0.06761474804353
  C   5.13643124508921      1.07100686537049      0.10361466691022
  O   5.61182275598901      2.19809729712784      0.15452074088719
  N   3.71057454745643      0.99655988154902      0.07813957212977
  C   5.82636662213822     -4.92675225584538     -0.13694535174701
  N   6.34058481236984     -5.95695211265966     -0.20911078702760
  H   3.37512462324659     -5.64790961041946     -0.86700231206974
  H   1.93341255789801     -4.75834790499452     -0.38357968742523
  H   2.45999865883678     -6.72878777177185      1.10850296403341
  H   6.92392226626879     -2.43499499211973     -0.01954804597751
  H   3.22811529155775      1.87939043037980      0.11537566383714
