23
Coordinates from ORCA-job 12778optt
  Br  1.27860523826102     -0.09492932931654     -0.71894915871231
  C   2.99513990328857     -0.17933338779086      0.16550389678430
  C   3.79324891975529     -1.34347641456318      0.07172025239445
  N   3.37583783198298     -2.63373945260444      0.06517466177991
  C   4.49756812042600     -3.36203938847705      0.06308205208914
  C   4.45748825710259     -4.85042972714087      0.07849149290143
  C   4.72298599679854     -5.55751102166010     -1.22638803440460
  O   4.95150432394869     -5.05307849071627     -2.28762502243666
  C   5.67175101138370     -2.57398332893202      0.07472843200801
  C   6.99094735778864     -3.07979817292046      0.08053876841380
  C   8.09664411138829     -3.56100036674778      0.09307669786304
  C   5.20361418533841     -1.24563711778447      0.07533694396932
  C   5.80736980583390      0.06289602174985      0.04786362756549
  C   4.97787378226099      1.12798669264760      0.03886228561642
  O   3.63446092960654      1.04486283907413      0.08462515122641
  C   7.21676991045998      0.28180322931138      0.00192111106146
  C   8.40396184872534      0.45884874915888     -0.03759295380500
  H   3.47508510921407     -5.19015633085187      0.42324327046999
  H   5.19192591419390     -5.26006524517351      0.78441702865148
  H   4.69379470827776     -6.66758875070707     -1.13878445858178
  H   9.07904737186036     -3.96354047649486      0.07857465609395
  H   5.31858889739065      2.15187829637365     -0.00297724160510
  H   9.45678646471360      0.59203117356597     -0.07984345934313
