29
Coordinates from ORCA-job 12770opt
  Br  1.03586680893250      0.07140077425115     -0.40415637558444
  C   2.91436407740267      0.09693398385634     -0.23156805249607
  C   3.63619577473749     -1.07783993603969     -0.30094458542565
  N   3.20899525084041     -2.33466303669469     -0.51842206332398
  C   4.26019146037544     -3.34424191615510     -0.24631687275711
  C   4.22866636469904     -4.53393425200562     -1.19563948259856
  C   5.37303010926985     -5.49025180318633     -0.95498527642419
  O   6.57606219042848     -5.10827059223537     -1.18127889387151
  C   5.55484889059498     -2.50613855568174     -0.33868538884936
  C   5.05788900731066     -1.09914399731676     -0.15046076786157
  C   5.66590179321704      0.08712273938700      0.02758554723458
  N   7.00850177754277      0.39244211929053      0.22401470212849
  C   7.18282848800851      1.81817930081567     -0.06106746092638
  C   5.81545630961701      2.39170403829898      0.32395550461311
  N   4.94876697298744      1.25589226759841      0.06669475571809
  C   3.55669704498907      1.35843070241732     -0.01852119525905
  O   3.03313545337540      2.46403026118207      0.08487030718867
  H   2.22846559529942     -2.56287408025986     -0.49316243149384
  H   4.13625974096851     -3.71462538183771      0.77740738753315
  H   4.26977787619548     -4.11145211658693     -2.22082249175784
  H   3.27249455182054     -5.05846393398238     -1.08096821091964
  H   5.10702163457672     -6.55925094143629     -0.99123495028883
  H   6.00783268812676     -2.65544620291419     -1.32200336093789
  H   6.28645761770578     -2.84160921903511      0.39353172423591
  H   7.65636173958641     -0.25281544111271     -0.20363350348756
  H   7.38142058999935      1.99750063770028     -1.12335444337903
  H   7.99393053561721      2.24130991504083      0.52880858624575
  H   5.51035331483059      3.24706541367138     -0.27384583958941
  H   5.77422634094426      2.67100925297053      1.38020313233416
