25
Coordinates from ORCA-job 12789optt
  Br  1.29837830366864     -1.02797637593006     -1.78435529161693
  C   3.36696905965646      0.06174412895869     -0.58588886076024
  C   3.92728472308036      1.20642345719943     -0.11493257328688
  N   3.44446228192881      2.46850910082885      0.12867141638653
  C   2.08520993218836      2.93083088580710     -0.01065869420844
  C   1.59751132728098      2.77882824507687     -1.45382802277458
  C   0.36858329065383      3.57662422704797     -1.76153962308164
  O   -0.13110586917631      4.39102703749030     -1.03269363976015
  C   1.17981433248708      2.22461917440157      0.90844338744961
  C   0.43660825673614      1.61233543309914      1.61888293529239
  C   4.51172536031759      3.27696530776227      0.59364227113431
  O   4.36726083719842      4.45286816313605      0.87432052204972
  N   5.66023954193883      2.50950480561995      0.64178838428916
  C   5.32060747381997      1.29784663360978      0.22847008719770
  C   6.10819808461406      0.13209562504208      0.08296489233360
  C   5.50290357655518     -0.99868023341150     -0.38425577286628
  N   4.18577953294848     -1.01036485717275     -0.70137224385801
  H   2.11068859268812      3.98919221472614      0.25948665613236
  H   1.41021752086524      1.72713255833149     -1.69741896885719
  H   2.38187880422796      3.11941313355591     -2.13971962249782
  H   -0.07046764464629      3.38343436244882     -2.76042558160758
  H   -0.21650264762313      1.04920381069163      2.23961341324971
  H   7.15951146650076      0.13613173037846      0.33091775710566
  H   6.03106256316003     -1.93083728747945     -0.52918931821913
  H   3.75218129893029     -1.84187128121882     -1.08292350922589
