29
Coordinates from ORCA-job 12787optt
  Br  2.21298199303698      0.92448591173225     -3.49953510192765
  C   3.14014702979767      0.36319479767419     -1.93667892332899
  C   3.50996033212413      1.37080460848946     -1.01403257558247
  N   2.70120652572769      2.49010717915078     -0.77613192388044
  C   1.45262431342023      2.32210124434625     -0.00892134344293
  C   1.63902516531505      1.99276907865297      1.49249965139406
  C   1.87461953643777      0.51084157877109      1.77810446856111
  O   2.87846417974077      0.38304560132223      2.77741780939650
  C   3.65757571284576     -0.78735206372345      2.70137616299422
  C   4.86339859967630     -0.65705653779648      1.76195042986697
  C   4.44477928807026     -0.37612425068100      0.35230643822189
  O   4.20153626128278      0.94096821909902      0.16155996809981
  C   4.19090597764516     -1.30564845369797     -0.57269710878846
  C   3.54270425588302     -0.98522008508148     -1.86821965712645
  O   3.37807575218038     -1.87855225016871     -2.72602962648353
  C   0.65730802424880      3.54755533945786     -0.14302990170705
  C   0.03411020619560      4.57014055758289     -0.21619614798371
  H   3.22125968134435      3.29037248912034     -0.44089453472961
  H   0.90944141094785      1.50804825721862     -0.50183811253834
  H   0.77410084371866      2.35089475918428      2.05382313442475
  H   2.51120197232600      2.54466232055083      1.84740108641046
  H   2.16145291030328     -0.01317074461422      0.86514152580424
  H   0.95441376741670      0.03833279824300      2.14475778838571
  H   3.04197687258790     -1.63827984604907      2.38414906678652
  H   4.01307372039196     -0.98655835196330      3.71604884789472
  H   5.42403350615025     -1.59377401092670      1.79803458670779
  H   5.50553318974941      0.15038977196585      2.12197012956863
  H   4.39871224565544     -2.34767179181573     -0.36529767651703
  H   -0.52062327422025      5.47169387395618     -0.30803846048075
