29
Coordinates from ORCA-job 12788optt
  Br  1.30385576229656     -1.02068917684930      0.18615771579903
  C   2.88801980253994      0.09466011946584      0.11928455129988
  C   2.96977644350694      1.15801047094983      1.01063504862929
  N   1.86784077327068      1.69841407567954      1.72450510809284
  C   1.00873780478875      2.54612377579323      0.90019718287216
  C   1.74220945765944      3.49652394782942     -0.10065169724237
  C   2.06728447372824      2.86789617865093     -1.45764128318172
  O   3.46821012852937      2.91687539535119     -1.66803218151666
  C   3.95115480735743      2.07390280251977     -2.69609554618162
  C   5.16371394666121      1.27534105959060     -2.19179428398628
  C   4.83234534007689      0.60885051186884     -0.88875700661769
  O   5.20350315535603      1.37147091714609      0.23062952607536
  C   4.21536502499181      1.85116048746118      1.05460309904480
  N   4.45172284964375      2.84876868067884      1.83447320883339
  N   3.72947201146116     -0.16708125365778     -0.84235465505629
  C   0.93343938752269      4.75524374867826     -0.19107226566700
  O   0.38089868923548      5.19533146939403     -1.16609904583451
  H   2.24964901932891      2.24854213949267      2.48621655208234
  H   0.38132516045835      3.13191799699820      1.57950401697387
  H   0.33554316539783      1.90781443400681      0.32002312823647
  H   2.68530367592300      3.77620441492429      0.38404880429980
  H   1.54579299133357      3.40901926576972     -2.25606670064464
  H   1.73636206453208      1.82473472620578     -1.47399766713511
  H   4.21386259247101      2.67682698463951     -3.57540471431205
  H   3.17437537362340      1.35983157338766     -2.98471872573253
  H   6.02133789270028      1.93420317709473     -2.04849978702645
  H   5.41770303925144      0.53383210392595     -2.95457742484607
  H   5.40232581049609      3.17255532682129      1.67697364862838
  H   0.84186935585762      5.29271464618283      0.77651139411337
