32
Coordinates from ORCA-job 12781opt
  Br  2.55652737765334     -1.72880790256377     -1.81948862543658
  C   2.56765085719862     -0.31614330879017     -0.55158189759175
  C   2.02601678403738      0.86821103446235     -0.89411463039043
  N   1.51449125316557      1.21751477308969     -2.13647577605402
  C   0.34882041134238      2.09161384639220     -2.15870011932298
  C   0.73031720303317      3.59296285632721     -2.18527221801366
  C   -0.12094371274706      4.41191618380431     -1.23509146187664
  O   -1.20061274088553      4.84117401789315     -1.57796976197049
  C   0.41112135343444      4.62878109127298      0.16290020922125
  C   -0.15475432498842      3.58633490996789      1.14606716712983
  C   0.69494343881466      3.43935825466253      2.40505923471065
  C   2.10011391009046      2.86367814374186      2.14922007048860
  C   2.15874279400329      1.61006419161028      1.34789119488478
  O   1.99317123470971      1.91277131973920     -0.04414610517046
  C   2.98568319971926      0.52283572487703      1.65142616567687
  C   3.23251207451283     -0.53525256025645      0.74709120393187
  N   3.92484829697977     -1.63896093394285      0.92940203063439
  H   1.45136532207901      0.41784285458130     -2.74739755849185
  H   -0.30012455983751      1.88186903260097     -1.30450220320815
  H   -0.22440317941619      1.85392815824431     -3.05347794936934
  H   0.59081311120816      3.99596898897406     -3.18904293697226
  H   1.77977159156056      3.66932857010340     -1.90954423451252
  H   0.12150740746477      5.62997166887115      0.48845277949076
  H   1.49814052690665      4.55848447645834      0.14782783493071
  H   -1.17805737076447      3.87025471489184      1.40042412144866
  H   -0.20249159692390      2.60493621346120      0.67469380965479
  H   0.17287847900661      2.76538648764134      3.08904871118745
  H   0.78699957995097      4.41093357629866      2.90715748805988
  H   2.56553914981427      2.65780195299370      3.11636885894805
  H   2.72559474831656      3.63809813954876      1.67091113591364
  H   3.34486476764830      0.42541335064241      2.67067247101588
  H   4.29595261291227     -1.62926982759893      1.87819099105309
