24
Coordinates from ORCA-job 12786optt
  Br  0.78320210863955      0.66771114783795      2.02627728982204
  C   1.50220362729347      1.50600305104360      0.37370806419789
  C   2.87029196098027      1.78044787746400      0.29361858258555
  N   3.39733727799423      2.99920052670476      0.79960243935208
  C   2.78188146746527      4.16277461786280      0.32229171582215
  C   1.47541033438129      4.44300304788492      0.36507776179555
  C   0.48939602909025      3.85495053826084      1.31734761184236
  O   0.71693432344674      3.91941536482971      2.50926707501465
  C   -0.86424499642333      3.33651238557775      0.93574536518646
  C   -1.28557597547375      2.62998900994200     -0.11026935021804
  C   -0.67029729421125      2.29233352043848     -1.43903692882617
  N   -1.01064380149010      3.00159257739849     -2.45055543904813
  N   0.10737898772250      1.17269259544566     -1.66371919562960
  C   1.10210978179468      0.87930047069266     -0.87499637793663
  N   2.00705714135536     -0.04996312740368     -1.30258534761812
  N   3.34806109733862     -0.01826501518818     -1.03140351510583
  N   3.74207070484636      1.00169665104448     -0.35680283431072
  H   4.39979346341457      3.00852876855930      0.67188617854201
  H   3.44685786675542      4.83878613076363     -0.20868384313086
  H   1.11932600287547      5.28594636798344     -0.21778311819647
  H   -1.55305328843402      3.44378238647436      1.76786466140062
  H   -2.30383218230907      2.25151354849974     -0.04464936823029
  H   -1.60247461807754      3.76871062337285     -2.13450824943745
  H   1.78380998102498     -0.58766306548962     -2.12769317787304
