23
Coordinates from ORCA-job 12783optt
  Br  1.27297394879377     -0.90950960587773     -0.79417232442140
  C   2.86451444819140     -0.11167694454063     -0.17622362610537
  C   3.02086773946733      1.24342208823147     -0.17813563781032
  N   2.03945651569007      2.11727052865687     -0.51378168711297
  C   2.37381834963759      3.39829790130437     -1.13572931748973
  C   3.44858314960004      4.07083399043362     -0.34827405301824
  C   3.42780495733207      5.47852244274210     -0.27560174276276
  O   2.58185297284037      6.20113817024753     -0.84178321714673
  C   4.37837183617859      3.24671449304139      0.29809677365459
  C   5.42835160544724      3.70675709680254      1.09451676194797
  C   6.34800818598143      4.13092219426262      1.76023968233513
  N   4.24694375807943      1.81221955883595      0.15842858608860
  C   5.34285031054374      1.01953764670573      0.29970601920710
  N   5.39679279348156     -0.26141180877420      0.37420891133646
  S   4.04577980423506     -1.16425701642312      0.51645128146726
  O   3.79232243075705     -1.36908300918947      1.91535513046849
  O   4.17033267968577     -2.33688988691239     -0.29894233806531
  H   1.18774431294923      1.67351765556648     -0.81850134649037
  H   2.67112018319192      3.24419736370991     -2.18241273713883
  H   1.49017664066626      4.03428892979534     -1.13322235757333
  H   4.22740908886236      5.93912155893758      0.32819417949739
  H   7.12950409132807      4.50726368517644      2.37311958362401
  H   6.27142019705953      1.57880296726755      0.33746347550836
