29
Coordinates from ORCA-job 12785optt
  Br  1.02120873368441     -0.28604413725202     -0.73273540769692
  C   2.95173505247667     -0.18345980116220     -0.51986866383527
  C   3.61721717314922     -1.37570557590466     -0.12321970844006
  N   2.99555088284576     -2.56175999476101      0.04693395928842
  C   3.73295770430717     -3.62494167738920      0.26780988755520
  C   3.08787816799243     -4.95875771559613      0.44600278141592
  C   3.52998309827706     -5.99723694415131     -0.57671210422809
  O   4.81266830288961     -6.49916231474522     -0.21050490505449
  C   5.49756045514493     -7.03986945554022     -1.30478522978176
  C   6.78919867115009     -7.57701678539535     -0.87442707087825
  C   7.85279236874592     -8.01613179189974     -0.54436746367596
  N   5.14543979029005     -3.59408381720440      0.24326670828250
  C   5.74160994259168     -2.34531789833505      0.73394761860879
  C   5.02581480176575     -1.18759285898847      0.11151053950790
  C   5.61008748448531      0.02563137594064     -0.17263464974592
  C   4.83611703206682      1.08975533385789     -0.62695427083020
  N   3.48316156479257      0.96427103037366     -0.76017704009194
  H   2.01294204692398     -4.80387510710187      0.35515315906783
  H   3.28598325836131     -5.38882582019487      1.44100653760877
  H   3.58592836439998     -5.53010879282985     -1.56658326167850
  H   2.82880570625597     -6.84170745160558     -0.62529616295321
  H   5.66737848018141     -6.26772593022037     -2.06654179449971
  H   4.91448437618801     -7.84523525544497     -1.77346224119799
  H   8.79864387081962     -8.39423468646162     -0.24058793968590
  H   5.55094127426639     -4.42340510631539      0.65749447849189
  H   6.80404974724567     -2.32599198397731      0.47826870715806
  H   5.66185701391481     -2.29008328448432      1.83127713575146
  H   6.67805426075614      0.16152227346506     -0.02240808872688
  H   5.25995037403113      2.05609417332398     -0.86440550973569
