26
Coordinates from ORCA-job 12804optt
  Br  1.66553807526155      1.67403922453604      0.94811696889424
  C   2.95159538521051      0.40153680655835      0.35714267232629
  C   2.76037407257467     -0.94442809920146      0.70416638323524
  N   1.54124928849427     -1.49617665216520      1.12599682722073
  C   0.53131506593106     -1.73333165818641      0.10353631723133
  C   0.89582194744424     -2.77557451584066     -0.97533707797080
  C   0.92426089418652     -4.17571172213958     -0.40464002613379
  O   -0.10406553994287     -4.76304946305761     -0.15883211428903
  C   2.26486954383430     -4.84313508023544     -0.14268389677788
  N   3.10824013028287     -4.04516710588323      0.75781367066434
  C   3.96607323074445     -3.11789270229288      0.12404933083735
  N   5.05403038823025     -3.42337942422424     -0.52828062275648
  N   5.61815468713058     -2.26773557317809     -0.98574417356379
  C   4.84288617437232     -1.26376144252040     -0.60330138327586
  N   5.02033954375112      0.04919066984125     -0.84281226621191
  C   4.04524911885452      0.84915115152998     -0.35800682465529
  N   3.76256552447227     -1.77237450725195      0.11428256584806
  H   1.68074525468128     -2.30897484133104      1.71020488455511
  H   0.33818815408168     -0.77939123776240     -0.38998313278782
  H   -0.39380112463296     -2.04882170885617      0.59252684002489
  H   1.84493986367009     -2.51030820188131     -1.44214552311886
  H   0.11266116738285     -2.76744327876633     -1.73683336979803
  H   2.76741155971607     -5.02041305345032     -1.10235908889129
  H   2.05162922906680     -5.80165748067141      0.32802793942966
  H   3.68085379051112     -4.67488759219688      1.30343361126590
  H   4.15387457469036      1.91269748862749     -0.53533851130231
