24
Coordinates from ORCA-job 12806optt
  Br  2.93204177953991     -0.25062374148779      3.19245507541381
  C   3.48145587335660     -0.08280420208890      1.38877231036294
  C   2.75993827756765      0.71175539986349      0.51675602825409
  N   1.71604997460049      1.48499031116916      0.64336679236010
  C   0.85427874376623      1.98248163960855      1.50054150703816
  C   0.16200047978136      3.12284389411057      1.07615796408960
  C   0.42608757092622      3.81419795096534     -0.10289335389105
  O   1.45660821626422      3.47484478756156     -0.96291403339833
  C   1.39511720140107      2.25875480927652     -1.63604879494656
  N   0.34929364484607      1.85872600781524     -2.22346804403616
  C   2.69279364744279      1.55309406812578     -1.81454689103354
  C   3.29589482593083      0.79769375463068     -0.86927508394814
  N   4.42469723641809      0.04274573907590     -1.11780840142510
  N   5.13005546025867     -0.70209114455378     -0.23554198635579
  C   4.66057717080224     -0.75385994420017      0.97081137350790
  C   -0.26575195919168      5.01909003753401     -0.46143169141926
  O   -1.17074175233606      5.55824654397649      0.17085634058823
  H   0.66537138199513      1.56951930092168      2.49396307624383
  H   -0.60663757222962      3.55965701840989      1.70148184547986
  H   -0.42461431659391      2.50030825352138     -2.04617244365450
  H   3.05839977844227      1.50808350301399     -2.83385957515070
  H   4.84216980238321      0.08358677068051     -2.03090735420740
  H   5.22492070712367     -1.35419819308528      1.67301201147376
  H   0.09999382750454      5.46095743515514     -1.40830667134576
