23
Coordinates from ORCA-job 12809optt
  Br  0.75898063629558      1.60200139220613     -2.23290656413184
  C   -0.85454279627759      1.36538482912464     -0.23229479313465
  C   -0.05896526309048      0.53991193737571      0.69761623711206
  N   1.22754181487612      1.02452741108086      1.01665290316416
  C   0.09910669224339      1.73255292078700      1.61003596419045
  C   -0.58773583550051      2.62869092745098      0.56077959912035
  C   -1.81548919315005      3.38417454602892      0.99060516461484
  O   -1.86840669881738      3.89321090440935      2.09478844307138
  C   -2.91760436041895      3.61007475768954      0.02106948952627
  N   -3.44076914617515      2.84323493200291     -0.87140244636363
  C   -3.15559678345915      1.54700501691683     -1.15754453873344
  C   -4.16260668870738      0.84909741427335     -1.97928869150215
  O   -5.21337708572531      1.32554259588037     -2.34821911248598
  C   -2.03223317971806      0.82501563639580     -0.72199784917675
  N   -2.06484236211986     -0.59122628376862     -0.78959600805247
  C   -1.29486181894530     -1.25705521389989     -0.04689788536104
  O   -0.36893897647802     -0.80347270837806      0.84673617561626
  H   1.65473475505020      1.49860425378692      0.21872865923968
  H   0.01535037614926      1.82402295306659      2.68280725874949
  H   0.09396037325931      3.32841933442521      0.06957399163495
  H   -3.40591134826476      4.57149813782056      0.18100595434764
  H   -3.88596799613327     -0.17844412824669     -2.25714276063283
  H   -1.32082511489260     -2.34077156642845     -0.03810919081274
