25
Coordinates from ORCA-job 12818optt
  Br  1.27143916400285     -0.33975938736866      0.04282269620958
  C   3.07944009770177      0.01695587586130     -0.38935161289238
  C   3.66099313034176      1.22564792075935     -0.16008294061621
  N   5.06487822391323      1.28856519456152     -0.23973804265722
  C   5.79626854152498      0.14431260972703     -0.12443792461363
  C   5.21079160203661     -1.04242240336204     -0.35437195818428
  C   5.87962332760930     -2.32932648966666     -0.09341518703423
  O   6.03641590269853     -3.05910323633145     -1.34017940865405
  C   6.52185295127443     -4.28640089400831     -1.26308779104743
  N   6.91036379864562     -4.96404695944749     -0.26276326408521
  C   6.62918060312910     -4.98381284406566     -2.60117451452162
  O   6.31637959650290     -4.50421347372886     -3.64954532264657
  N   3.85471361467108     -1.10351688305757     -0.81196516443389
  N   5.56763327225761      2.51835025953578      0.13754543215183
  C   4.49361036272886      3.23951959109289      0.38844187662292
  C   3.24132720339305      2.55427887350716      0.24515434774014
  N   1.99184175568968      2.96485424849430      0.40556664135725
  H   6.81356562930475      0.26292537487408      0.22428773324428
  H   5.26287849336915     -2.95037064305876      0.56466976514869
  H   6.87175076798910     -2.18449253290126      0.34377094925447
  H   6.81979663596508     -4.45962355383841      0.61572813648072
  H   7.03821833230249     -6.00402851765635     -2.50235810486543
  H   3.80985738196749     -1.24319297421322     -1.81928195021333
  H   4.60853561745221      4.27707867630446      0.67343041341357
  H   2.01464399352820      3.94682216798684      0.68033519484204
