23
Coordinates from ORCA-job 12811optt
  Br  1.02334958153442     -0.22765385039020      0.11857534102651
  C   2.91510051934726     -0.20414648758919      0.02393974162630
  C   3.62491066437316     -1.37921968448931      0.05016798567661
  N   2.92082160585983     -2.55966519933467      0.13797922780867
  C   3.57181630519896     -3.68085855438441      0.11856077227327
  C   4.97908951446342     -3.79851573096499      0.00014643806002
  C   5.57207706175335     -5.11596848383660     -0.15552388458696
  O   4.95248335858659     -6.16635139687545     -0.13018396618383
  C   5.71908811786244     -2.60936303662886     -0.03547500475430
  N   7.12973450237361     -2.65438574781920     -0.15281309697964
  C   7.98019466145981     -3.12023661432909      0.82543819473611
  N   7.71580717096343     -3.74921638150357      1.89308774628375
  C   5.08249568707141     -1.35152919631570      0.00411748729627
  C   5.83212105672526     -0.15995920589111     -0.00319197873771
  C   5.35318590534804      1.15986316011481     -0.05802739105996
  O   5.99583360350125      2.19923245959502     -0.08442135948943
  S   3.54895363275730      1.39032142503682     -0.09462214472170
  H   2.99147860888074     -4.59684765648829      0.17221488859300
  H   6.66248532342342     -5.13123395331343     -0.32113835349344
  H   7.52937535284600     -1.96684949897523     -0.77297060080415
  H   9.02382831894869     -2.91371215088069      0.58528557243777
  H   6.71034895280933     -3.87204358899653      2.01686734718742
  H   6.91042049391220     -0.20966062574008      0.06898703780540
