28
Coordinates from ORCA-job 12828optt
  Br  1.74815950109505      1.88708594602267      0.13361412675162
  C   3.39337462435102      0.99438312516041     -0.07220176566868
  C   4.61354427254989      1.68353799011986     -0.16226959120825
  N   5.81091164961242      0.90877911612332     -0.00214748757645
  C   6.88729351871777      1.45242990870758      0.81949316292402
  C   8.17904566187662      1.86378948872108      0.08214314709355
  C   8.61805099381973      3.31576966887603      0.31275109907596
  O   8.09727746168670      4.27796345229269     -0.58515118066208
  C   6.72075991411755      4.46916699846466     -0.50521425666191
  O   6.09767524371166      3.28809624215807     -0.92170602138112
  C   4.80364406690589      3.06681686591026     -0.44799149786758
  O   4.04694296204548      4.01951508185500     -0.31909775635815
  C   5.81969228399969     -0.43933533893808     -0.22991421230312
  N   6.82519286490286     -1.24086366302565     -0.12941243239252
  N   4.60057979688002     -0.97252393299420     -0.58683370338315
  C   3.34264139725784     -0.41549801566372     -0.25800269285152
  N   2.27190040313224     -1.14046600848022     -0.21443282123688
  H   7.12384526143172      0.70254486520543      1.58038137498605
  H   6.47170115863984      2.31178770329040      1.34551396413918
  H   8.05855038875753      1.69665708075384     -0.98777468790883
  H   9.00145760211552      1.22638651849979      0.42156166041554
  H   9.69915883466630      3.39267259788861      0.19379828438365
  H   8.37450752143407      3.61483104640141      1.34333772430976
  H   6.40872367071478      4.70749548192393      0.52189927925706
  H   6.47873704113299      5.30353636810489     -1.16381043190808
  H   7.68689399731911     -0.73102419682551      0.02487423264520
  H   4.63821592692722     -1.97395881930324     -0.69360368475450
  H   2.50052198019832     -2.11357557124936     -0.40480383185878
