27
Coordinates from ORCA-job 12829optt
  Br  1.88377928409521     -4.03215707269615      1.35623713279892
  C   3.13952720936245     -3.23344044342081      0.11451739288502
  C   3.36965863506795     -3.86108672594281     -1.12855230114394
  N   3.91641890088955     -2.95088607444150     -2.10598790741135
  C   5.02369081838028     -2.27214382730707     -1.62488580460045
  C   5.13715240315712     -1.97768560675199     -0.32398233901212
  C   6.49386279105431     -1.93395959495657      0.28662951924743
  O   6.84423680052954     -3.27257196746282      0.71598200969426
  C   7.43969612256157     -4.11599683369746     -0.19968060917763
  O   6.68619483393232     -4.55379441352427     -1.31749199652655
  C   5.59893337452085     -5.37169451564316     -1.10164918949909
  C   5.38873926678360     -6.37758235183988      0.02512992411471
  C   4.06577949601305     -6.20700940904102      0.00778120996696
  C   4.10202979251734     -5.14326896997031     -1.09528271001062
  N   4.80217940838306     -5.70089953462575     -2.27243331529670
  C   3.98012883531993     -2.20118792990536      0.59848504035508
  N   3.95621433073533     -1.52701898626118      1.71493299644270
  H   4.08612473457870     -3.40209875803450     -2.99292431085534
  H   6.51359464330877     -1.33822438477835      1.19646087812658
  H   7.24962129468769     -1.57850761837693     -0.42489993512370
  H   7.75502889946946     -4.98876569718269      0.38094202822378
  H   8.30536127077249     -3.63374295009752     -0.66896316969152
  H   6.04800873143522     -7.05536971106684      0.55305398063663
  H   3.23640702339250     -6.69909939560857      0.49508010222727
  H   4.66561060006822     -6.70301721291833     -2.38063422898707
  H   3.13904489431703     -1.80560117988310      2.25596135904362
  H   5.83997560466640     -2.10918883456500     -2.32282575642687
