27
Coordinates from ORCA-job 12825optt
  Br  1.49233926810680     -0.92690479670230      1.38473675195257
  C   2.60181449251532     -0.04389479578812      0.01958370493017
  C   3.06783214063463      1.23469865818844      0.29737593848720
  N   2.30306115261742      2.12399526191504      1.09728593616833
  C   0.94963740971130      2.41592137028017      0.68209870105296
  C   0.83944273351570      3.65468956238219     -0.24231207880480
  C   1.87185984733451      3.66654101138768     -1.38643090497928
  O   3.00606680403288      4.39648038139112     -0.95288953148464
  C   4.27156647445075      3.81233184838923     -1.11328912242120
  O   4.64583915481687      2.99972917686779     -0.04326389797831
  C   4.31354050874068      1.64548568175571     -0.19088934886777
  C   5.28545807753650      0.84238255527733     -0.78172913487323
  C   5.10115044120020     -0.51735752588214     -1.14657034681543
  N   5.95206919072404     -1.36778925443006     -1.61528220683770
  S   3.41006344133267     -1.12147122954385     -1.07599416124926
  C   -0.52491791493169      3.76760917488802     -0.75886666804577
  N   -1.59429443369334      3.84432711762067     -1.16743077683425
  H   2.83763882650908      2.95188656960433      1.32118201022219
  H   0.30697930566056      2.57580603438391      1.55140793692379
  H   0.56529460012814      1.54360894425978      0.15434510409832
  H   1.02959994369927      4.55989678300572      0.34181628951312
  H   1.45027401533232      4.17097138144774     -2.25931561975034
  H   2.13576543989553      2.64286222657178     -1.66180525501529
  H   4.96916363739762      4.64893727663289     -1.13514931306174
  H   4.31692174196023      3.23649721387256     -2.04466948321807
  H   6.26186473963794      1.28164665445880     -0.95369865066944
  H   6.86196896113402     -0.91388728223449     -1.70024587244211
