27
Coordinates from ORCA-job 12823optt
  Br  1.24012528262769     -0.09597760329058      0.84420241286234
  C   3.03563968046370      0.04297838229630      0.27195697138748
  C   3.56148542627321      1.28339661872362     -0.14321446625245
  N   4.96908027153546      1.35166822735389     -0.41221772064232
  C   5.73716799716160      2.41530074659959      0.24057455260818
  C   5.71000955445524      3.77583614920017     -0.44889704315558
  C   4.29873017119144      4.29890045369250     -0.52861004518516
  O   4.32175537435261      5.53060199484713     -1.23948853890045
  C   3.11706318078185      6.12178542880347     -1.39155147318064
  N   2.95148915905200      7.21193974135889     -1.99813934852810
  O   3.51128588361922      3.39497266930210     -1.22182732392924
  C   2.81530318563149      2.47138711263265     -0.37865200444096
  O   1.71440049095184      2.82282240605336      0.01845922434595
  C   5.64948552422621      0.16827524553627     -0.58739405105107
  C   5.10628910985380     -1.03703570335517     -0.38908079670731
  C   3.75631052063548     -1.18973081244914      0.16931033794157
  N   3.26583665936274     -2.34360446562755      0.52083881974237
  H   6.77477408055126      2.08381512283558      0.29999613292254
  H   5.37521811168839      2.51930743977058      1.27116915524530
  H   6.08803934803042      3.68819635946910     -1.46969344112250
  H   6.34481964053728      4.47188514891782      0.10475509045210
  H   3.86937189641588      4.47448794824538      0.46817614857304
  H   2.28415478940294      5.57712959351431     -0.94752674573142
  H   3.84807918470686      7.54627014847058     -2.35462706888485
  H   6.68293723596702      0.27837684737618     -0.89841843484555
  H   5.68353393836339     -1.92861099683780     -0.59819168681344
  H   3.95761430216088     -3.06537420343929      0.32709134329018
