24
Coordinates from ORCA-job 12835optt
  Br  1.28301200859027      0.13954604284040      0.72413450708297
  C   3.07177203910006      0.11746772063536      0.14814411043735
  C   3.67213535671663      1.21410140652333     -0.33747367798152
  N   4.96550887695832      1.16186910216606     -0.76236636462445
  C   5.81115942621551      2.31692289709564     -0.97140980887604
  C   6.48021431751104      2.83955775504549      0.31286971839464
  C   5.59469326685407      3.77865545102854      1.11390644583248
  O   4.27903013240049      3.20798676212608      1.20899277588431
  C   3.43563787689000      3.57056134634559      0.23051002793195
  O   3.11586853432202      4.70494603551400     -0.00707471442126
  N   3.00000391175336      2.46679426293820     -0.48830423400289
  C   2.01797399301101      2.65097801620648     -1.46697179512384
  O   1.71976646445399      1.83163005976867     -2.28362824560536
  N   5.77506945263167      0.02061624739763     -0.48384426280888
  N   5.15110349262100     -1.09156532385321     -0.10194747355009
  C   3.84070496471359     -1.16429721659317      0.20446977183435
  O   3.27429886767862     -2.20675511963783      0.53922990638082
  H   5.25509752186456      3.10691326425324     -1.48278084995456
  H   6.59021161264844      1.97400096521731     -1.65194774740755
  H   7.40128225071943      3.37113543673351      0.05785059418242
  H   6.75292200750479      1.96473113488216      0.90512272926958
  H   5.50967544933158      4.76440124918808      0.65046863293548
  H   5.94682948979943      3.90333009898502      2.13617149543981
  H   1.56502868571003      3.64647240519336     -1.39112154124972
