26
Coordinates from ORCA-job 12837optt
  Br  3.36956773424543      2.53353359786144      2.72905441721919
  C   4.27743133158528      1.43121444749874      1.43768899880844
  C   4.74015659894859      1.98866556692479      0.25907514628385
  N   5.43341311643733      1.12509347827226     -0.64680421502765
  C   6.72436849532524      1.61643789016549     -1.13828486780174
  C   7.83083594887877      1.73958271018357     -0.06773576047649
  C   7.97902692777531      3.12087649181534      0.55233995169315
  O   6.77070667582155      3.42101491005517      1.24546954112303
  C   6.14129179659661      4.58350240337481      1.01621324014929
  O   6.65016304933459      5.66018095000145      1.10683243623331
  O   4.84860419004003      4.40403227816591      0.70992198591636
  C   4.60706211695975      3.34644347196569     -0.20806950729057
  N   4.45023300999095      3.74755256258412     -1.40550279032644
  C   5.33454888613835     -0.28232636498695     -0.45469399353756
  N   5.75827543013736     -1.15664954540987     -1.31292383756636
  C   4.77826720920762     -0.68805651106531      0.79618990137440
  N   4.31072856899903      0.15260955303385      1.72739300347199
  H   6.57489988735657      2.58294889293736     -1.62562940908587
  H   7.06364533107004      0.93062315124333     -1.90916918525735
  H   8.79380629612403      1.48440548080990     -0.51999032395482
  H   7.64409371909666      1.00682770725804      0.72235836968072
  H   8.80636931286489      3.14506831925123      1.26399996430468
  H   8.15847745712971      3.88640253609132     -0.20756108299563
  H   4.24561888062027      2.93492115968127     -1.98632543009837
  H   6.08040122343967     -0.70764929828998     -2.16493781494602
  H   4.73200680587617     -1.75025583942305      0.99509126210647
