25
Coordinates from ORCA-job 12830optt
  Br  2.24455942697508      0.28913974562199     -2.44574157347007
  C   3.44539786754137      0.19257234766260     -0.98968008908232
  C   3.98928552443516      1.35046660625617     -0.38955121053822
  N   3.82051714350117      2.66750592146794     -0.65409313023250
  C   4.59693437353340      3.31123871935381      0.23948756214428
  C   4.66160525762569      4.80655261068833      0.22889945264514
  C   4.93977011532224      5.32757274441548     -1.18131059094932
  O   4.96318799705605      6.78277363171523     -1.17634359603854
  C   3.81211372869025      7.41720310574246     -1.33707195095180
  O   2.73576837019615      6.92852929807730     -1.51970295222197
  C   6.24128793319611      4.89896339163052     -1.68973174447137
  C   7.31049650227736      4.53082332989603     -2.08187150266457
  C   5.29086672016284      2.44303673638007      1.10265683582974
  C   4.88665782322286      1.17795317941987      0.69088460849746
  O   5.26422513348077     -0.04155467989411      1.19813666175278
  C   4.70681598915143     -1.13097631915961      0.58498411392097
  C   3.83584695156211     -1.04580734491488     -0.46174609405185
  H   5.44687730483748      5.16277016159258      0.89859135529942
  H   3.70990119439312      5.24893284370955      0.54195973969652
  H   4.14531383583460      4.98101903597440     -1.84265809562520
  H   3.99170409507702      8.50052351043539     -1.28318046683049
  H   8.25185211835926      4.18002423376399     -2.42816382071126
  H   5.97886155946916      2.70302909254095      1.89197435960489
  H   5.03710878297754     -2.05953167808924      1.02327703649407
  H   3.45204425112166     -1.96876022428688     -0.87500490804577
