25
Coordinates from ORCA-job 12839optt
  Br  2.91711308579355     -1.21752423112895     -2.72494048824227
  C   3.14558583938642     -0.43764793444696     -1.02420973895889
  C   2.40261585225462      0.66205670396415     -0.67664781627498
  N   1.53922373707419      1.32403173006581     -1.46066180277913
  C   0.69659941513851      2.47348441314787     -1.10183316348464
  C   1.42184229957592      3.79858411939378     -0.77180170305813
  C   1.59681201983261      3.87268461591646      0.73713715971367
  O   0.56157612583263      3.91148292826651      1.45176837376963
  C   2.90690573060128      3.56085347586355      1.21337985032764
  O   3.97807383892672      3.58687353256417      0.59467512228737
  O   2.87495658993036      2.92618230086859      2.47344884415641
  C   3.71798450918724      1.81445470614126      2.52445576861107
  C   3.55269140881221      0.85855639913920      1.35193334180594
  O   2.50327760421551      1.17212169180941      0.55439736117594
  C   4.34727877900245     -0.17668800438303      1.06572793298186
  C   4.15620494104011     -0.97810789271496     -0.14665023157183
  O   4.83004727119962     -1.97053598684163     -0.39787158780749
  H   1.46479742882520      0.95914996688548     -2.39459138145522
  H   0.06777286627410      2.21917259590552     -0.24574363039234
  H   0.04240505463293      2.60250677477394     -1.96429820163256
  H   0.77017849721009      4.61395463463656     -1.09995481077352
  H   2.37023731005574      3.85983784657594     -1.30492008415263
  H   3.48286003413117      1.29226907905901      3.45366511639707
  H   4.77462364574434      2.09871813446497      2.53638095901997
  H   5.18633611532241     -0.41547159992669      1.70415481033703
