24
Coordinates from ORCA-job 12832optt
  Br  0.99917827753306     -0.13126132785700     -0.26615458451096
  C   2.86414074930185     -0.05375775905325     -0.09904866044853
  C   3.61007223761032     -1.20445269802756     -0.20364562158404
  N   3.23932082920026     -2.48104492709802     -0.41606102225808
  C   4.35746832665264     -3.32758796483037     -0.44219325073735
  C   4.19983390739645     -4.78491616066693     -0.67954472380108
  C   5.44983744331089     -5.59407625763096     -0.33868319102886
  O   6.59496738220467     -5.10855897084805     -0.54500839680794
  C   5.20305723774647     -6.89909255577043      0.17444104604428
  O   4.06748118669242     -7.40189309923023      0.36506370115639
  C   5.43335217445483     -2.54731601981046     -0.24729033186793
  N   4.97306925361030     -1.22374859782107     -0.09659847947112
  C   5.72132489263022     -0.06709107994306      0.11906623614396
  N   6.98507099486964      0.01089358806094      0.22132462839707
  N   4.93223640322690      1.05542664411835      0.21554763841787
  C   3.53334873883991      1.18377099512100      0.12515926315031
  O   3.03418831903306      2.29054796669130      0.23926941748348
  H   2.27910293858401     -2.76932007603702     -0.50486813324301
  H   3.94440190234993     -4.93740547217821     -1.73699697774210
  H   3.36124308599944     -5.18035240603161     -0.10064761448089
  H   6.11999415605901     -7.47075471280051      0.40131473796318
  H   6.46647928742778     -2.83806395954279     -0.22255105425049
  H   7.42957381001369     -0.89532926528989      0.13014138173053
  H   5.43125646525210      1.91838411647588      0.37296399174531
