21
Coordinates from ORCA-job 12833optt
  Br  2.59120405417582     -1.62009949368015      1.96546417093740
  C   3.32645933270863     -0.59854594020664      0.56355204182490
  C   2.92123030261011      0.72397178019672      0.35459273959835
  N   1.85045048803349      1.28593840232860      1.08445596475130
  C   1.29966176617425      2.33534759644957      0.43458385850968
  C   1.11214727793098      3.64206714368839      0.74769747125487
  C   1.42619416982148      4.49850287697573     -0.38762273988219
  O   1.26912568082538      5.69332683228367     -0.49369688200915
  C   2.30935560327069      3.73399768752570     -1.43524039407237
  O   2.10839597901828      3.76445413895934     -2.61408460245673
  C   3.54531579480948      2.99135169019011     -0.85374475054116
  N   4.54512373611220      3.75042055016923     -0.71076835046995
  C   3.63651329408529      1.48581325456939     -0.61054420801942
  N   4.60927216066568      0.98448953888590     -1.34325196693097
  O   4.88340704118099     -0.37544119226524     -1.21084783837978
  C   4.35514673040790     -1.18609427123065     -0.21438984778205
  O   4.80808969647426     -2.30504868174217     -0.13757729170526
  H   1.93156523161029      1.29259520364705      2.09215326785158
  H   1.19525174988312      2.08473760937918     -0.61608056046074
  H   1.11097439443717      4.05300293862039      1.74831580882746
  H   5.35511551576446      3.20921233525586     -0.40296589084575
