26
Coordinates from ORCA-job 12840optt
  Br  1.28856059238112      0.02811779255251      0.28236777679324
  C   3.16563284273778      0.01740562761539      0.09466468647510
  C   3.83547740325507     -1.15943027557690      0.14241837367733
  N   3.38025208605386     -2.43053870013664      0.37738845513553
  C   4.42208458972584     -3.40084225533652      0.03392698463777
  C   5.73325191572639     -2.61311813551992      0.10019028160100
  C   6.72938259462609     -3.03384825575034     -0.91594228155782
  O   7.94489924276200     -2.61518951325961     -0.84450956883905
  N   5.18424520329897     -1.19272610222195     -0.02387575360076
  C   5.87018422882894     -0.01647845259605     -0.15036325393342
  N   7.21282359789996     -0.11326441542109     -0.20987755220801
  C   7.95460924307389      1.10016698493424     -0.47167395856064
  C   9.39598508945186      0.85647484446862     -0.44540636568049
  C   10.57936300082694      0.67592060630959     -0.43467500837013
  N   5.27987067032189      1.14991701629279     -0.19584505665528
  C   3.90168519797568      1.26538481493287     -0.08957105282824
  O   3.34475050248953      2.35138393648380     -0.14205321361433
  H   2.41699366040327     -2.61083478048152      0.14209709531589
  H   4.29328546810403     -3.79084429270751     -0.98146117123093
  H   4.42455964072736     -4.23209349272407      0.73639722292802
  H   6.18500993527422     -2.65094150412445      1.09812662755399
  H   6.33046637498588     -3.48478562296728     -1.83451540963599
  H   7.65398798991871     -1.04640030758175     -0.41231570996205
  H   7.69612828726078      1.85593928970049      0.27292174370770
  H   7.67638037632423      1.52926638445168     -1.44053841821515
  H   11.62613026556552      0.49435880866365     -0.42687547293324
