22
Coordinates from ORCA-job 12845optt
  Br  0.96075969446838     -0.17414269279073     -0.00909248502926
  C   2.82583216457249      0.19734453828453      0.07191020741410
  C   3.27549666361989      1.49518998808893     -0.03882479298840
  N   2.32963784107572      2.50255381302090     -0.24575421387959
  C   2.80076122427605      3.80183010775872     -0.29502277098860
  C   3.68729944622639      4.11787660785669      0.66413788638053
  C   5.05990549574244      4.19654879009244      0.04973869800912
  O   5.68793934140159      5.17762578187482     -0.29061387541066
  N   5.47799137806123      2.90349316105249     -0.11590030349041
  C   4.75352000988289      1.76726645923308      0.00035691818122
  C   5.56789085353227      0.61022625736437      0.13830195338468
  C   5.08324079094514     -0.66201586785152      0.24310898612643
  C   5.84130135661493     -1.90246807584993      0.39441499118213
  N   7.09390526740652     -2.14055423820708      0.45955514612510
  S   4.62170658918593     -3.18321381654299      0.48492550401732
  N   3.28698372941873     -2.18329804129881      0.33302255581759
  C   3.68197581376462     -0.92845579843276      0.21877576171938
  H   1.45629943821860      2.22244497048343     -0.66359277756962
  H   2.73457993030448      4.33504857761972     -1.24105716093497
  H   3.64457264988267      3.49196493076631      1.55119016469006
  H   6.63353201691986      0.80525861873990      0.15500850711708
  H   7.61686830447915     -1.26752407126253      0.38641110012676
