27
Coordinates from ORCA-job 12856optt
  Br  0.54324120211626     -1.23416350792797      0.13868737335135
  C   2.23859849279463     -0.32932688260411      0.03212553718144
  C   2.46301653180806      0.62134437929886     -0.89721758158133
  N   1.52674428429919      0.97773975084081     -1.90750720623721
  C   0.53936242466692      1.95202507828447     -1.42946743162557
  C   1.11153697543313      3.15790295196762     -0.64873273797220
  C   1.02287625209042      2.99979953200905      0.85325436194281
  O   0.08839093712950      2.43694352048325      1.37154173652933
  N   1.87971669276641      3.72908374090530      1.70085852003932
  C   3.25109381816330      3.96572220553995      1.78291687919294
  O   3.65673094394990      4.59114320047821      2.73997982774254
  C   4.18511986596986      3.40731096270766      0.73329174715584
  C   3.96306506992984      1.92292910418432      0.51799720585360
  C   3.84354683777449      1.10421357147605      1.60232730743437
  S   3.37116967312006     -0.56208090917116      1.35036789235673
  C   3.64491276022619      1.50016621468065     -0.82496251804235
  N   4.03768266064303      2.08126562145250     -1.94789622538584
  H   2.08689380538087      1.42444628468136     -2.63056354473051
  H   -0.18772656859567      1.44604834615926     -0.79394205447547
  H   0.00993415647603      2.31999865586179     -2.30951931927322
  H   0.47130317306534      4.02833616719915     -0.83507280203488
  H   2.10798714210300      3.41784368991816     -0.99952535907642
  H   1.45179905612838      3.84500000744142      2.61173277512125
  H   5.18813604376135      3.65499605415420      1.08300154933839
  H   4.02609315729776      3.93934553462822     -0.20884155842354
  H   3.85642696915265      1.47652729308612      2.62071475261217
  H   4.82334764234907      2.70043943226481     -1.76554912699356
