17
Coordinates from ORCA-job 1285optt
  C   1.09394691839332      0.02060656403091      0.00644050715363
  C   2.57451689049741     -0.07532716773813      0.24157839183318
  C   3.15565485092557     -1.41385281049704     -0.05628255089542
  O   2.65518724695148     -2.47065132259235      0.78135453065825
  C   3.34135633765874      1.07380083333335      0.08512565715046
  C   4.82163502867754      1.11431287167585      0.18260885877131
  O   5.52710278303597      0.73704986758615     -1.02912072500799
  H   0.68322794540689      0.94944540443625      0.40717485613504
  H   0.54890668575467     -0.81637124605810      0.44571429629731
  H   0.88362627304838      0.01119828200742     -1.08431227048116
  H   4.24658079921376     -1.38465934550128     -0.01107836910425
  H   2.88262954109260     -1.71914844190109     -1.08624646968015
  H   2.51878767183741     -2.04885313670733      1.64006739814145
  H   2.82734758909396      2.02954264820564      0.11465193453081
  H   5.19039538887831      0.42120194092939      0.95126423738908
  H   5.14840486891165      2.12355630509456      0.45715448674263
  H   4.85269318062218      0.79114875369578     -1.72009476963417
