25
Coordinates from ORCA-job 12850optt
  Br  3.10322025895183      1.13435128638189     -3.46592250896580
  C   3.37557135437461      0.91027362769835     -1.07169126463215
  C   4.03149216683760      1.87142550662089     -0.30128953729301
  N   3.97743730222774      3.21571340453561     -0.37180478849565
  C   4.85217845993180      3.65546776484582      0.55420975849157
  C   5.09464325330664      5.12923368648434      0.71271632672603
  C   5.48118602814797      5.85418487102930     -0.57124092266910
  O   6.34191892811619      6.71623769526168     -0.60245601640759
  N   4.77045576014684      5.49619479579591     -1.66764528608180
  C   5.13542674238012      6.01757568141660     -2.95438466439718
  C   4.57492432924139      7.35662503943254     -3.22377201337758
  N   4.14875696549174      8.39265413295386     -3.46419489579721
  C   5.47440002879673      2.62094694971766      1.26198765971201
  C   4.94733009909958      1.44402815152142      0.71000217351683
  C   5.13491671935342      0.05620936738595      0.88024268598592
  N   4.51799983215819     -0.83743553804904      0.15886749297647
  N   3.66587931199140     -0.35323878915944     -0.77466335234272
  H   5.88573736221171      5.32198736167441      1.43410594455128
  H   4.18291816620354      5.61469630459285      1.07672819575002
  H   4.18404793539606      4.65924622638305     -1.58970784956752
  H   4.77661117510156      5.33847133154448     -3.72701464014744
  H   6.22122508146264      6.10467580631189     -3.03462001169246
  H   6.21251551187637      2.72532455669625      2.04246574701640
  H   5.81842363812962     -0.34807990168827      1.61886120161376
  H   3.25578358906440     -1.07776931938819     -1.34577943447303
