24
Coordinates from ORCA-job 12852optt
  Br  1.91190917770543     -0.75415723949949      1.89863869542124
  C   2.62029318248370      0.17811292262792      0.40790480759291
  C   2.68914224341788      1.51608013374613      0.35771584925139
  N   2.32804279369863      2.33006171143888      1.44607058668111
  C   0.93336626566676      2.51339591201288      1.82683219516020
  C   0.31096873851981      3.80784197847535      1.28585205681483
  C   0.05728079097086      3.66514028981932     -0.19730135198102
  O   -1.04773097402020      3.36097768134514     -0.61991084937797
  N   1.12508081267538      3.80683324144172     -1.01975168113198
  C   2.46050847895273      4.23221241778691     -0.73683407584626
  N   3.49339080245802      3.42407879293522     -0.96495959960293
  C   3.41938767320491      2.10419687845083     -0.78721389173345
  C   4.14092921478472      1.19674042100596     -1.57762735223485
  Br  5.25461271782962      1.84397976696863     -2.95688019117174
  C   4.00231801971295     -0.20988849359125     -1.50556667306602
  O   4.50615525391942     -1.07893565580322     -2.17421151635553
  O   3.08692030340539     -0.65999968132662     -0.52059967593189
  H   2.80273315396410      3.21947729045799      1.36893696606184
  H   0.86203820172468      2.51621470869075      2.91784564603957
  H   0.35646978953817      1.65885342048733      1.47274303635883
  H   0.97224312971510      4.64936709434241      1.50371946671162
  H   -0.65559639094213      3.97710847125867      1.75875340964461
  H   0.92468820990250      3.52757051191821     -1.97595828795569
  H   2.63684841071150      5.29973742501030     -0.80219756934882
