27
Coordinates from ORCA-job 12862optt
  Br  1.96323915173087     -1.21550824751774     -2.99527082991573
  C   2.89068153373792     -0.20219594105178     -1.62802313138114
  C   2.86059715447843      1.16698634175272     -1.69031686397284
  N   2.05430660440797      1.92241931067000     -2.58541197841794
  C   0.81942701445224      2.40449612168765     -1.96278964510812
  C   0.97423773216786      3.33274027593264     -0.74075534174997
  C   1.35315926408182      2.59339522337270      0.52230568416742
  O   0.89450722197754      1.52960016717692      0.83747760082437
  O   2.20618237160419      3.29726004008385      1.30256546813262
  C   3.01238593077794      2.53418066172507      2.20537587390970
  C   4.30252351237539      2.07446447316168      1.51450144238813
  C   3.96595540506358      1.21653007708267      0.32563420125934
  N   3.53514341256432      1.89869622181213     -0.73834973754667
  C   3.93536808744807     -0.17032797011845      0.38225351433259
  N   3.47722628961845     -0.92821624682861     -0.69322507574274
  C   4.35645155458026     -0.86604439260790      1.54777350294973
  C   4.72084137854619     -1.44927971180580      2.54076165676544
  H   2.60055173710251      2.72580351990075     -2.88388078217667
  H   0.23181412674159      1.53243464959220     -1.67044820220132
  H   0.25707509857543      2.94416449851244     -2.72906919172798
  H   0.00715097440445      3.81036718609979     -0.54811100754303
  H   1.71193806829287      4.11148875276987     -0.93096892699585
  H   2.44530127468178      1.67500309673024      2.56331195142381
  H   3.23674312856917      3.20113610826606      3.03808438933170
  H   4.90357083574501      1.53127186285709      2.24492227170873
  H   4.85102273162673      2.95362858903954      1.17042123935447
  H   5.02959840464738     -1.97649466829575      3.40923191793198
