27
Coordinates from ORCA-job 12867optt
  Br  1.51368930629058     -0.44569983326036     -1.15744396349331
  C   3.32733553482413     -0.18110583184419     -0.57943306554294
  C   3.76669044976715      1.07842069380153     -0.20677319734757
  N   5.12579219109524      1.19968398150174      0.19914387784869
  C   5.87566226897058      2.39455963255306     -0.19297096830121
  C   4.94828516341404      3.52698924485532     -0.59719293300375
  C   3.88982333535808      3.69948400781449      0.47717755143104
  S   2.71528628312788      2.34444828514750      0.39955151127077
  O   2.24736385029921      2.12944878271254      1.75261644142070
  O   1.72863404832923      2.69985120823943     -0.59434324112847
  C   5.89988112839364      0.04079653698396      0.41510270333299
  N   7.11656806428415      0.07427826451690      0.85838456593431
  C   5.28112614756594     -1.19639922885734      0.01616680847852
  N   4.05515424295022     -1.26339089378168     -0.53671809088315
  C   6.05027395148099     -2.44529906312304      0.15780512904027
  C   5.43083478608790     -3.75328006442072     -0.06976681677545
  O   6.32175997318011     -3.21914953270093     -1.03063791672512
  H   6.57735010626659      2.14392337037450     -0.99789203867547
  H   6.46728628484986      2.73847564666310      0.66077208272776
  H   4.46768999230871      3.31886523564309     -1.55494870128964
  H   5.53499973099191      4.44064226191948     -0.71025638427970
  H   3.27343990300839      4.58784117970429      0.34264779941121
  H   4.32482250762006      3.69688610621531      1.47659656287348
  H   7.40039399723323      1.01490680864968      1.10687004246130
  H   6.90296345664929     -2.37564143138704      0.82031502233875
  H   4.38980937547879     -3.76924139607184     -0.37282147955338
  H   5.79708392017399     -4.62329397184882      0.46904869842937
