27
Coordinates from ORCA-job 12864optt
  Br  1.24285445453455     -1.98292819131074     -0.82398923579838
  C   2.45518524043670     -0.54586201562101     -0.53245179800825
  C   2.38350336672036      0.54055251386698     -1.34351931914455
  N   1.29908656051249      0.91854574321656     -2.16144925396805
  C   0.24357702535418      1.72078720982833     -1.48962337527616
  C   0.93356885825863      2.60510723915469     -0.46707166931097
  C   0.41005797412819      3.82206016568910      0.19258251289534
  O   -0.59470073636059      4.43528989079838     -0.00513582752622
  O   1.32033215867967      4.32369920556582      1.10441683643959
  C   2.44792917827403      3.63153872249403      1.58173468630340
  N   2.53128036426604      3.41474016726205      2.81830865892068
  C   3.59702681849651      3.24615879166546      0.65375489139906
  C   3.63251790581285      1.78770647994734      0.22405726792824
  O   3.36402130757478      1.54420645931122     -1.13338241415864
  C   3.69538323596105      0.72458416283199      1.05359492200237
  C   3.33172095760597     -0.60848282263810      0.61527557699938
  N   3.61699057282114     -1.74596883497625      1.23381563926894
  H   1.64285722327733      1.42035240157244     -2.97101699389844
  H   -0.46219029881199      1.03965722378697     -1.01217803349366
  H   -0.29274542231096      2.29517826475929     -2.24542008440164
  H   1.82075601020460      2.99088305493236     -0.96753144069382
  H   1.31233436619657      1.95137231310171      0.32195581767666
  H   1.67625127132433      3.71295050638400      3.28639102041359
  H   4.49400072786167      3.46534927871392      1.23543642573473
  H   3.60404917245877      3.88587246138896     -0.23000955774974
  H   3.93168453879587      0.88776380498451      2.10009200030347
  H   4.20166716792722     -1.53311419671005      2.04036274714304
