25
Coordinates from ORCA-job 12879optt
  Br  0.60585192882627     -1.34437228875498      0.25275735224655
  C   2.89146789529332     -0.12820451848626     -0.03909758215977
  C   3.51760608638865      1.07213295391269     -0.02144062332847
  N   4.97321319525113      1.09152757063187      0.04005634211143
  C   5.67700601943787     -0.09432024278442     -0.07131889328611
  C   5.00757675644256     -1.25388752517335     -0.11243364896944
  N   3.62027502905722     -1.26716869919025     -0.05666637569395
  C   5.39324378596198      2.36978455593783      0.09893505790709
  C   6.84956824037829      2.70116092959232      0.09221435343705
  C   7.47924757075728      2.53920674554129     -1.26868689356372
  C   6.81676069284509      2.24668616103465     -2.42662659997817
  S   7.92458320695042      2.19478665981684     -3.71050724629457
  N   9.24239833224662      2.54317469911293     -2.79557013956036
  C   8.86480526588223      2.69284286488164     -1.54931318394984
  C   4.32247979455167      3.22869755256139      0.08102174283063
  C   3.07793203410405      2.47319938808154     -0.00312838937927
  O   1.93125985068080      2.91485377018028     -0.04411938467859
  H   6.75367773875365     -0.04304747282809     -0.13670455984171
  H   5.51278377132169     -2.20286504748409     -0.20391438960236
  H   3.09875065572940     -2.13149142869140     -0.02146207239652
  H   7.38699092386827      2.07761533103373      0.81480779733301
  H   6.96730388946829      3.73483125573478      0.42287400878935
  H   5.75681789144099      2.07243992260536     -2.54705471855392
  H   9.61625651674137      2.92304759720515     -0.80187731981123
  H   4.38514292762063      4.30436926552851      0.12925536639291
