24
Coordinates from ORCA-job 12878optt
  Br  3.98847869599826     -0.46865832411726      3.22548067230516
  C   4.74121970968719     -0.21623304388996      1.47376586955944
  C   6.11089875674159     -0.07719259384376      1.33922895435545
  N   6.46860576211860      0.32159298709750      0.04721193474091
  C   5.80866937243340     -0.34107857324868     -0.99709172421745
  C   4.44873803336406     -0.48717388045811     -0.77799313169306
  N   3.90424355271094     -0.30707516487501      0.45075956015779
  C   6.60669866495047     -0.99468764107376     -1.99512478716390
  C   7.85636958447886     -1.48718394299403     -1.62354252197959
  N   8.47440885839976     -0.96421380072798     -0.52222667607939
  C   9.05330286899269     -1.79321337185694      0.31514336967524
  N   9.19073666191257     -1.29664574362527      1.62567275636167
  C   8.23409317404598     -0.65925164642885      2.43606796795258
  N   7.03107856520454     -0.23876191496750      2.33265375425275
  C   9.47300690726998     -3.05083631933865     -0.09462854837342
  N   9.28285846551574     -3.40415163259894     -1.39478880517163
  C   8.50727484593331     -2.66953786127657     -2.14359788347451
  H   7.48448820288968      0.27194350705735     -0.08186167322454
  H   3.79308564560118     -0.86556133091131     -1.55321404022126
  H   6.10654855382448     -1.43243044124768     -2.84944622754541
  H   9.91887897004028     -1.72502495958474      2.17469217526628
  H   8.66664867560210     -0.55457955894470      3.43190758015834
  H   9.96100171576342     -3.75886399884083      0.56206916875154
  H   8.30966575652080     -3.00818074930431     -3.15713774439299
