25
Coordinates from ORCA-job 12881optt
  Br  1.24854938122190     -0.23634034362800     -0.36221083125855
  C   3.08082559361326     -0.19686770331140      0.12756957924471
  C   3.79209339292203      0.92816939701297      0.35450011410051
  N   5.13634846395784      0.64929566810507      0.73225291625202
  C   5.80399764303599     -0.28723651956263     -0.11207697408573
  C   5.06781736403089     -1.40258602135111     -0.37050583380009
  N   3.73760691141119     -1.41853918607931      0.09245326139292
  C   7.12129521404605     -0.08180091319009     -0.61532191967476
  C   7.85727763283758      1.11267148852168     -0.70651765361390
  C   7.34347296153892      2.43575319912492     -0.65884948226776
  C   6.00603378287185      2.69408215403013     -0.85049398640815
  C   5.26885511746906      3.77654723360084     -0.26536748745978
  O   5.72623408141549      4.87584703044011      0.08073450892342
  C   3.84063272115880      3.46778602679246      0.02105790930955
  C   3.24563628994353      2.27439282474506      0.24262521452551
  C   9.27293285348209      0.96453264340692     -0.87072418621979
  N   10.41064433506171      0.83656619870006     -1.00745652518032
  H   5.67530001205690      1.47929137174805      0.91629401075246
  H   5.40547459998321     -2.22544661843727     -0.98143737234009
  H   3.17627563560916     -2.22451418356388     -0.11701279405996
  H   7.62445212206062     -0.98921433048466     -0.93111503956543
  H   8.00840709863873      3.24098312284969     -0.36430467228314
  H   5.40784036279301      1.90294393446474     -1.28043035275853
  H   3.21541789202904      4.35148031836387      0.11118481104801
  H   2.17057853681104      2.30120320770173      0.38815278542686
