26
Coordinates from ORCA-job 12887optt
  Br  6.16147465051808      0.87559747720735      3.61858424372728
  C   5.86600856098262      1.65339008836905      1.82722537978813
  C   6.33406071744054      2.94279338661485      1.57486791291028
  N   6.61130236746241      3.19771794681209      0.20895995060705
  C   7.59292520062408      2.26784379170241     -0.35937566302313
  C   7.56335860994313      1.00643682646165      0.44745061998406
  N   6.22388077799542      0.70009723088646      0.80130066425666
  C   8.64686575863030      0.34233757212747      0.86021716279921
  C   10.02896571775515      0.86735053394323      0.69966794846455
  N   11.00965771425503      0.28405398235047      0.15961012049702
  O   10.25665928817600      2.13348667195272      1.20093610753929
  C   9.97812960462216      2.32642183509635      2.54279269902563
  C   9.18202015479292      3.27551154720812      3.02446639061722
  C   8.29540364206318      4.15326842621568      2.21629259062655
  N   8.67518419270709      4.90105516915548      1.24567320561109
  C   6.87074438823333      3.83163928679957      2.57865237959066
  O   6.45932214601927      3.97794259548545      3.74320381812676
  H   6.93866478565132      4.14990317452949      0.09944365348098
  H   8.59240930335801      2.70315412642161     -0.37358632763149
  H   7.30694018000020      2.00391263297840     -1.38392670854820
  H   6.09946756491382     -0.24443655482290      1.13804062471215
  H   8.54115128752657     -0.58585605519084      1.41154760571892
  H   10.68792895761642     -0.59826822509697     -0.23284557805490
  H   10.48616354460443      1.62348799296716      3.19542897019279
  H   9.03276262650582      3.28786409371522      4.09715824120155
  H   9.68854825760252      4.83629444611038      1.13821398777986
