26
Coordinates from ORCA-job 12892optt
  Br  2.06178264871405     -2.81879014982388      1.15190021092113
  C   3.41375849106159     -1.86867967868900      0.18767920356139
  C   3.54675929411282     -2.05876765080911     -1.13189769564009
  N   4.67633975632638     -1.42240360372002     -1.72034153218391
  C   5.84885509339901     -1.51326751731163     -0.97060544968129
  C   5.77163049928160     -1.53970725590048      0.36547144090468
  N   4.46638275069340     -1.32059075016164      0.94375476611861
  C   6.77421051233775     -2.37104869692777      1.12694968759730
  N   7.89953481798057     -1.98110793615644      1.56843007213262
  C   6.28743516850877     -3.78913267587935      1.16175945401274
  C   6.21862972729908     -4.45643061864751     -0.14266391161296
  C   7.42415498447467     -4.59076813905702     -0.90662251193449
  O   7.51583735401583     -4.96182342408020     -2.07441341123807
  C   4.95460888735756     -4.46569411411725     -0.75124786629703
  C   4.52602221713144     -4.58693678409092     -2.06513899245831
  C   3.32145229903023     -3.92998367136815     -2.47352029329661
  N   2.78476666100965     -2.83470186270874     -2.00136772417038
  H   4.78210630815298     -1.68213122543936     -2.68947358613183
  H   6.75849445385735     -1.74509261571135     -1.51127544547766
  H   4.32220138129818     -0.36753515616685      1.25114418086331
  H   7.99959517323552     -0.98122943983681      1.38347033193647
  H   5.44609120026112     -3.94163313106098      1.83315353991503
  H   8.34331512079430     -4.30866735591592     -0.35408198787182
  H   4.15671780700385     -4.19453512867798     -0.06906479371302
  H   5.11942168668110     -5.08958179949130     -2.81682077284952
  H   2.79089570598108     -4.34575961825026     -3.33317691340625
