23
Coordinates from ORCA-job 12899optt
  Br  0.62645157240675     -1.04940476358386      0.79246921608125
  C   3.00750308447242     -0.18223244977854      0.25669631640086
  C   3.61343475594950      1.00801448966554      0.11504222770292
  N   5.03043254176514      1.09941476127005     -0.08351440421790
  C   5.77071134747331     -0.06904199574844     -0.06583562903765
  C   5.15023111088357     -1.24720558221063      0.06833546508349
  N   3.75235205602575     -1.31316730639111      0.19699894645763
  C   5.39525855023078      2.43406270246227     -0.10699824239170
  N   6.57674857677622      2.93582179125045     -0.23571226137734
  N   4.23161433835630      3.19155987287018      0.03861725534703
  C   3.21595435372638      2.37641561228887      0.15974990752918
  N   1.92576379398463      2.80680620653569      0.40750640533572
  C   0.94079732937222      2.31246544689349     -0.20244453982935
  N   -0.38637567258728      2.49427776543597      0.08366076094097
  N   -1.18410041924685      1.76000296286666     -0.76710801604147
  C   -0.35703136337231      1.25607484275623     -1.58730152048726
  O   0.93883206321850      1.57181004041460     -1.35973421249343
  H   6.84279810597545      0.00790269718936     -0.16615125488898
  H   5.69059229636869     -2.18090353174300      0.08010400266277
  H   3.28286123764020     -2.18879727462032      0.36040681019781
  H   7.26508867253255      2.19279592413367     -0.32152227122492
  H   -0.70825355782003      2.66143293446520      1.02098617778824
  H   -0.58666477413206      0.61589485357761     -2.42025113953786
