24
Coordinates from ORCA-job 12895optt
  Br  1.64619155983394      0.22792788653730     -1.38864733614658
  C   3.29474102801122      0.03041398936544     -0.50361548152535
  C   3.72856000382207     -1.09490978400457      0.09286884881268
  N   5.06848458545574     -0.99040488675363      0.61546002024327
  C   5.46426174768991      0.25362703284138      1.14561667152721
  C   4.94617651983054      1.35247434427046      0.60365484291216
  N   4.04602977351517      1.22343132230212     -0.45519273629087
  C   5.93973424773460     -1.95094111596285      0.18037036359181
  N   5.59616463031170     -2.68146238813459     -0.78824646852480
  C   6.14797432423578     -3.96095869816512     -0.92518252408298
  N   7.20063876643847     -4.23554158554560     -1.61042642379341
  N   5.43179567335400     -4.93088666696116     -0.28238960360871
  C   4.27431758961776     -4.69868852197327      0.32156809641891
  C   3.30212967474833     -3.67873106267924      0.55804949740478
  C   2.96800673862245     -2.30551222066179      0.40036991841825
  C   1.63757442791884     -2.03003623644372      0.83105505207089
  N   0.56244163991642     -1.82597863117995      1.20519717239880
  H   6.14555244762031      0.26468476414692      1.98495781726408
  H   5.16429157615916      2.35008422998005      0.95626207135002
  H   3.54114080976507      2.04807180395839     -0.72963948008364
  H   6.85352922874194     -2.06708880362760      0.77349332629869
  H   7.55563612225743     -3.36638004845901     -2.00461192680642
  H   3.90506892817458     -5.62143226086781      0.76954794924301
  H   2.45955795622446     -4.16876246198210      1.03748033290820
