26
Coordinates from ORCA-job 12901optt
  Br  7.87162285578098     -0.93358889190496      2.50232893673592
  C   7.29304816948642     -1.88433067697100      0.86924586042563
  C   6.77093599949872     -3.16477657297590      0.92375511575454
  N   5.77933352617180     -3.36928268467241     -0.10964753085961
  C   6.24047445039234     -3.00720469320111     -1.46115654470655
  C   7.27300904343901     -1.89380215061472     -1.38544337226272
  N   7.40171275649673     -1.17550514844742     -0.21734166004324
  C   8.51560162511693     -2.07067030663979     -2.15198441313729
  N   8.65390520825996     -2.20297176665745     -3.40698330679295
  N   9.67544918714181     -2.23328349941249     -1.29340965381051
  C   9.56182327025652     -3.36474010652368     -0.47272030527047
  O   8.98267781689417     -4.35922126139386     -0.85282987699115
  C   10.19756172908873     -3.26075236657662      0.85556631334479
  C   9.68049218080182     -3.70119440295999      2.01677825408322
  N   8.45738424406106     -4.20861860795129      2.36368683315340
  C   7.22049011667990     -4.30176088144995      1.67486708069338
  N   6.59447392067254     -5.41080646411610      1.83758700913042
  H   4.99368754050857     -2.76299665077168      0.10087158100749
  H   5.35159415170163     -2.72025133707720     -2.03490712761529
  H   6.69787127668608     -3.86954660976422     -1.95255283842592
  H   7.74209399119630     -2.06773583725030     -3.84601609911808
  H   9.83431501282997     -1.39931772753840     -0.73903242915536
  H   11.15506695749838     -2.75825931285928      0.90882206275760
  H   10.32561303385777     -3.61627925450619      2.88685247028928
  H   8.45863632539699     -4.80521398709656      3.17606022429728
  H   5.69612561008466     -5.33288880066735      1.36560341651618
