21
Coordinates from ORCA-job 12911optt
  Br  1.35214017186746     -0.22163300845652     -0.90905362364408
  C   3.17590455190103     -0.02448441308843     -0.49034615176071
  C   3.79366475190708      1.16437993573172     -0.26339413485657
  N   5.22856676052387      1.07806932082542     -0.07806556927004
  C   5.73311289529963     -0.14759519033213      0.41756316184488
  C   5.05178087634247     -1.27216674838250      0.24862182646751
  N   3.84170010103719     -1.27113305370788     -0.45426614908705
  C   6.16208143941174      2.04905790152606     -0.34096128378156
  O   7.35462873159522      1.81095948364552     -0.28949546423306
  S   5.65062998908065      3.69196380764638     -0.72729074521033
  C   3.95473668264215      3.63397253219165     -0.31593448634052
  C   3.22942748294767      2.47026344989505     -0.17976522948391
  S   1.55217311172144      2.84577639477772      0.22220352509187
  C   1.84689704989509      4.60081683012394      0.21038609182843
  N   0.97342102703544      5.49764064332853      0.46027795553247
  C   3.27175883946002      4.87383066339464     -0.14077801616791
  O   3.75861236386321      6.00800751568604     -0.26344856671884
  H   6.69048644104052     -0.09418591975940      0.90711944305785
  H   5.40271819605309     -2.22052043055905      0.62572876413327
  H   3.22457395609566     -2.03934903360844     -0.24051643795917
  H   0.06798458027931      5.08432931912165      0.67841509055747
