24
Coordinates from ORCA-job 12912optt
  Br  0.76220485810983     -1.12948277062660     -0.05947005462774
  C   2.99834034297004      0.00587902322681      0.33428054658600
  C   3.63722923266095      1.14742984755498      0.05037261639749
  N   5.08309405405694      1.17124029233751     -0.03965854294434
  C   5.76798493834708     -0.04394908461838     -0.17369387470771
  C   5.09458760953033     -1.15890953539579      0.11949239201259
  N   3.76154121127994     -1.12433895021133      0.52222904192098
  N   5.67085315510838     -2.43935537206439      0.02454194747265
  C   5.05838582457978     -3.54257541787608     -0.51673705224478
  C   5.95339313147881     -4.57881625577537     -0.48952942057805
  C   7.15340670828184     -4.08834172421869      0.09133398220157
  C   6.94697926382781     -2.76955820351634      0.39775263728160
  C   5.53555837112118      2.39908248472862     -0.33562067686192
  O   6.66158844283318      2.77412926422789     -0.55845318694404
  O   4.44093551001942      3.23561142222667     -0.36156956022407
  C   3.24874230170630      2.52807216720969     -0.14896956093493
  N   2.12065365382282      3.08864360402627     -0.13026045621168
  H   6.77703596631836     -0.01940837639589     -0.55114440140179
  H   3.25536345790651     -1.99002113130002      0.63722748047807
  H   4.05241185424776     -3.47760770530037     -0.89853379961380
  H   5.76468458156740     -5.57782688449972     -0.84576116086749
  H   8.05680053002545     -4.64303296914083      0.28211120855845
  H   7.57741251923813     -2.03602183918563      0.87031239803656
  H   2.22681248096156      4.08715811458700     -0.29425250278362
