22
Coordinates from ORCA-job 12928optt
  Br  0.73838068450562     -1.11825020939528      0.70241754434559
  C   2.96581406254611     -0.17145252984605      0.01529355943674
  C   3.61277478375809      1.00263466842112     -0.00712897647897
  N   5.04148362381565      1.05537180885951      0.08732132017337
  C   5.77001482372888     -0.13244763864540     -0.03513092785320
  C   5.08680151997490     -1.28798796560967     -0.04472853372394
  N   3.70753486090104     -1.31469122226379      0.05772909920284
  O   5.60565425209632     -2.53364879417296     -0.18530741453244
  C   7.00194279253746     -2.59024936662260     -0.36283058144046
  C   7.40047342037797     -3.97682497407797     -0.58398851932608
  C   7.74983088063578     -5.10264124213790     -0.78694124395955
  N   5.58515056837115      2.24113328414284      0.13394441444259
  C   4.69588331855112      3.19386138179484      0.07145390393984
  S   3.05644455609183      2.64749571600095     -0.22290729560606
  O   2.12455193064886      3.10064486159792      0.78209039297975
  O   2.66594181840341      2.91290774878991     -1.59080809675753
  H   6.83562311665770     -0.02955731017907     -0.14385617622321
  H   3.22527831542498     -2.19577224001813      0.16506386266701
  H   7.51057588444526     -2.18714376408043      0.52027458336001
  H   7.29227625487817     -1.98359442968990     -1.22833592872929
  H   8.04577834860562     -6.10738662185900     -0.97000433817643
  H   4.96879018304379      4.23459883899110      0.11237935225943
