22
Coordinates from ORCA-job 12927optt
  Br  1.12639057392658     -0.12595350032653      0.48837557556690
  C   2.97545836383984     -0.05494936770521      0.22210559396010
  C   3.63296395561883      1.12561128372679      0.11461098238223
  N   5.03805081451608      1.06906599894334     -0.08909727066506
  C   5.71555423094257     -0.14601249909406     -0.10209075710336
  C   4.99031072650222     -1.27029081463913     -0.00131453928225
  N   3.60670153675207     -1.23884010863886      0.13579616292373
  O   5.58097187583016     -2.47870710988942     -0.09520633022097
  C   5.03591515558035     -3.59322413396960      0.52927258213280
  C   5.82650999300715     -4.61041907393297      0.97685963815712
  S   4.73440549015377     -5.80888436358805      1.59682663638519
  N   3.33890742374701     -4.87060943124932      1.25202773653966
  N   3.71454608493416     -3.71458597860333      0.65344959484752
  N   5.56424370595098      2.25730632948966     -0.17995233625290
  C   4.58605547602771      3.14443060204880     -0.05848878205088
  C   3.28603317572560      2.53925347916472      0.14066808058047
  N   2.09879116416414      3.03905961137612      0.30288743127874
  H   6.78594320974809     -0.12981085010259     -0.21136420546110
  H   3.20265738459036     -2.20666000677715      0.36836111996432
  H   6.89870286267858     -4.67584150207076      0.95884996184571
  H   4.80656657507393      4.19822538255625     -0.11535229661925
  H   2.15932022068971      4.05483605328133      0.27577542109125
