24
Coordinates from ORCA-job 12922optt
  Br  4.72037224198228      1.73460313125741      2.57349652201363
  C   5.17932285071505      0.39770265117296      1.28220023617530
  C   6.36785187935525     -0.33495407668046      1.40629324678176
  N   6.37473662325758     -1.45421407729931      0.54004195144671
  C   5.75605681217781     -1.43063426186177     -0.70068031376329
  C   4.65182645355117     -0.55321493785123     -0.73680932947453
  N   4.33060861893139      0.25102683398244      0.29679467611475
  N   6.16142219273348     -2.20112468090020     -1.68984913516038
  C   7.49975529086943     -2.54771341918796     -1.78067140363634
  N   7.94528798390592     -3.62281535525710     -2.32096092179016
  C   8.46736903248205     -1.52959550126290     -1.26796605447975
  C   9.66102639375022     -1.76544979866286     -0.72086608338468
  N   10.39539865227287     -0.75142373900846     -0.06031892356210
  C   9.86929545140122     -0.24355421766700      0.98487250590446
  N   8.72194108752526     -0.73757747499017      1.59275066531774
  C   7.63737307127469      0.12183007042348      1.95770733291697
  O   7.84663281133825      1.12269443449141      2.61433337661277
  H   6.80979870766772     -2.32537951956520      0.79743552646557
  H   4.04208248039775     -0.50809025331110     -1.62839800816144
  H   7.14446694582854     -4.20133882348736     -2.57512171273679
  H   8.08847465517941     -0.51242561177290     -1.21522952467620
  H   10.10366049731848     -2.75661644259197     -0.75136531590417
  H   10.32703259799785      0.61191107132691      1.47073308777070
  H   8.41120666808613     -1.53164600129662      1.06157759920944
