22
Coordinates from ORCA-job 12936optt
  Br  1.35335570577619     -0.28070460935403      0.00040308315896
  C   3.22856672577408      0.02554672317271     -0.14113271114600
  C   3.95173162427171     -1.14988758809318     -0.11069854726772
  N   3.53643356777317     -2.44815475654294     -0.18302340636992
  C   4.63112158882915     -3.29582872510396     -0.11572509896641
  C   5.72382016870401     -2.50849143422968      0.00351018348226
  N   5.30370235728214     -1.19417120956743      0.01215830768541
  C   6.02854238249239     -0.02377090713393      0.24030554782456
  C   5.33161554862426      1.20794039127275      0.16333108893786
  C   6.09642757545307      2.40936539518042      0.38609917266980
  N   7.30870426273011      2.51231907399968      0.79767833499454
  O   5.48819885091460      3.60588993417193      0.13396694872767
  C   4.17164850493149      3.75894331469146     -0.21502569864845
  O   3.79927442061148      4.89250390590034     -0.42916655504208
  C   3.38139758419206      2.56602746207522     -0.28352483147765
  Br  1.61298822016823      2.92519313139894     -0.87800949710747
  C   3.92159200752364      1.29570622316884     -0.09126703464630
  H   2.56632022046975     -2.69878464422152     -0.25153005967774
  H   4.53808370417192     -4.36431522929188     -0.16299715308076
  H   6.76415614608320     -2.76128717219364      0.09989618761024
  H   7.09361688688677     -0.10825787354651      0.09130191580353
  H   7.66470194633645      1.59121859424640      1.02644982253567
