26
Coordinates from ORCA-job 12932optt
  Br  1.13811757870504     -0.46941775390710      0.51125517203460
  C   2.94243375726704     -0.14323432050769      0.01207612205015
  C   3.56577267080912      1.02991661574562      0.31223316585105
  N   4.93594945246180      1.16040526599893      0.26254783729174
  C   5.29906235855469      2.38469804793489      0.76264410494658
  C   4.19894789052938      3.08032138001797      1.10793828598750
  N   3.09058308255791      2.26092411455270      0.79001799265028
  C   1.79645391817221      2.75045832500065      0.59392285199626
  C   1.03098175041393      3.38418363542017      1.76944855508666
  N   0.31894319522457      4.39471411327498      0.95306478888376
  S   1.46617617519171      4.36034569038376     -0.28453223353490
  O   2.47487535699436      5.36532491045519     -0.05639413663606
  O   0.86887588609616      4.29525330520926     -1.58207030356160
  C   5.75938746726675      0.06309255780557     -0.07586733360596
  C   5.10238696308469     -1.06391692286311     -0.62281769478090
  C   3.70558741370444     -1.27607921663251     -0.56758388020142
  N   3.02430489377789     -2.32779361405974     -0.96580443752473
  H   6.33696482687374      2.65284988999746      0.85387308428062
  H   4.07337987562237      4.09148926283876      1.44449550128468
  H   1.18057690287947      2.02006734467433      0.07786184469937
  H   1.72727397253257      3.81507660717408      2.49104065249880
  H   0.35079181914350      2.68676008699367      2.25298827280565
  H   0.19788910968171      5.30974381478604      1.37220037727253
  H   6.76716711979705      0.34129271423201     -0.35227112296101
  H   5.71251191910271     -1.84673933188304     -1.05713879519797
  H   3.68360464355513     -3.01773652264289     -1.32212867161568
