30
Coordinates from ORCA-job 12937optt
  Br  0.94371243553871      0.43812498846607     -0.52474483411345
  C   2.78245448483708      0.21850024742390     -0.16153812129633
  C   3.57133499359240      1.29861845173212      0.06287199520238
  N   3.15169837395562      2.62179952248720      0.25084013294049
  C   4.34238481720850      3.46168449795306      0.13082488508365
  C   5.42510350050449      2.51623327800471      0.64254672793944
  N   4.91191873425941      1.23455146568636      0.20609495877462
  C   5.61381476422469      0.04272986394576      0.39443722108301
  C   5.00444976852781     -1.22638957010521      0.32425228054938
  C   5.74781026117295     -2.40743786497419      0.61618223624967
  C   6.98366983580060     -2.45339053048123      1.19087191596994
  C   7.54779611344664     -3.84962926722081      1.21449727239291
  C   6.29875271672067     -4.71358985692780      0.96911691086137
  C   5.33865877352088     -3.80595629764887      0.18557339685589
  S   3.42407028458416     -1.39462194865968     -0.37615067556556
  O   3.47910804358071     -1.68202800230102     -1.80129583236832
  O   2.58614488302287     -2.30270711224184      0.38474119913365
  H   2.34849455016264      2.87768605339292     -0.30580975224453
  H   4.25170310130072      4.36477001709119      0.73281511623085
  H   4.54598977571490      3.73774430764680     -0.90974950921530
  H   5.50890401178431      2.54422385350878      1.73694503674721
  H   6.40723769926251      2.70631880569416      0.20763278634439
  H   6.69172381544897      0.13977387505976      0.33740940018595
  H   7.52191630286525     -1.59115423155103      1.56204192663467
  H   8.04572691029722     -4.10718018032061      2.15503429815154
  H   8.29053769048649     -4.00937619392320      0.41829289091360
  H   5.84643507991446     -4.95892996274541      1.93284874239457
  H   6.51670067082059     -5.65112610496134      0.45353446401578
  H   4.29015984884652     -4.01950417487115      0.38691410913447
  H   5.48358775859710     -3.90773792915941     -0.89603117898595
