21
Coordinates from ORCA-job 12958optt
  Br  0.91579726263338      0.23581638629398     -0.03692741910977
  C   2.79852393591692      0.10352755417481     -0.01845096979562
  C   3.51022260466599      1.25067701104964     -0.01277984305603
  N   3.17153563426518      2.57255547852890     -0.01410664541793
  C   4.34379399623287      3.35213131887300     -0.00607555803437
  C   5.39190844006779      2.47366720018327      0.00026067191637
  N   4.89691947779499      1.21469864101136     -0.00362493895201
  N   5.65400118232376      0.08771760073918     -0.00068204235688
  C   4.95144109085729     -1.05501425511493     -0.00390700106384
  C   5.72560943660084     -2.30000619080141      0.00054939068913
  O   6.96941627894187     -2.33062788057044      0.00477942729959
  C   4.91889079102770     -3.49961747070826     -0.00005123235904
  N   3.61162255523936     -3.55342872060857     -0.00548341002289
  C   2.91587669151795     -2.39348482494432     -0.01141683178216
  C   3.51492449298921     -1.15206810657857     -0.01143768697365
  C   4.33780934206382      4.75379920895906     -0.00477844176116
  N   4.30920108622700      5.90780305714838     -0.00375945743407
  H   2.22574541039779      2.90940228595460     -0.01935203693909
  H   6.45268259802612      2.64798767803921      0.00704608628476
  H   5.46807279588521     -4.43809460847540      0.00437121498545
  H   1.83600489632494     -2.47444136315349     -0.01617327611680
