28
Coordinates from ORCA-job 12963optt
  Br  9.79164898926099     -7.81732799684041     -1.70932294743227
  C   9.59485742682608     -6.03196789734312     -1.00348213638284
  C   10.74027413000574     -5.46440528340152     -0.53186595564635
  N   12.07260853004757     -5.90410869491897     -0.65146465980775
  C   12.85175512172116     -5.13159136729724      0.30845651937007
  C   12.13346853904643     -3.78778777729365      0.25641273780248
  N   10.73421241442519     -4.20938775606836      0.12726596297677
  S   9.66744918276601     -3.08554752772647     -0.63415841146321
  O   10.30153856860752     -2.79067942437280     -1.90262170835240
  O   9.54046404362912     -1.96700986262704      0.27966229045721
  C   8.26086317991010     -3.98878914078663     -0.72906108698425
  C   8.34107338541428     -5.38724944606638     -1.01658869214731
  C   7.04106704855170     -6.14128007682572     -0.98564474250944
  N   6.53792431038964     -6.41179854318105      0.37804514126611
  C   6.46020294817889     -5.49059422933173      1.24669199828128
  N   6.61683847451223     -4.12655491804450      1.15275463379436
  C   7.02486018828400     -3.45051778837597     -0.09571517191785
  H   12.17131521707858     -6.90854105549235     -0.60585474172308
  H   13.89593116284383     -5.06192562630183      0.00379017459045
  H   12.79751078251428     -5.54770400912514      1.32296451300950
  H   12.44614085857570     -3.22015102365184     -0.62568879035054
  H   12.27050635440449     -3.18625714266050      1.15279432650776
  H   6.27867078732029     -5.60617122084817     -1.56120444064578
  H   7.16490264406630     -7.11243131989545     -1.46052310990329
  H   6.18509632315504     -5.79308742519363      2.26032476153293
  H   6.94788301004254     -3.69236684864451      2.00028688388878
  H   7.15331330509860     -2.39708535614135      0.14322861217373
  H   6.17262307332345     -3.52268124154354     -0.77648196038507
