25
Coordinates from ORCA-job 12967optt
  Br  1.01144505281214     -0.24493551944616      0.38403181838027
  C   2.88514982839799     -0.09242724129941      0.13701153301614
  C   3.50003984189320      1.12877320916062     -0.04488390721548
  N   4.92159135694440      1.09919973160479     -0.03457633064027
  C   5.64887722807490      2.34143426071862     -0.13061106259996
  C   4.93898637427449      3.43454440716157      0.64205041062767
  N   3.59903210788146      3.54423831596885      0.13031196815358
  C   2.85218629858667      4.67170932999355     -0.05462935136397
  C   1.61180902601792      4.27905736148605     -0.49742494098565
  C   1.60969250475592      2.86823019257696     -0.57742952670667
  C   2.86494631938661      2.42184726887314     -0.17754347468872
  C   5.61724180793254     -0.10910113933538     -0.36670851010847
  N   6.82454636386342     -0.10018874727754     -0.83049004892840
  N   4.98286095978409     -1.27634920377057     -0.12730259915747
  C   3.67145072997529     -1.25514835550380      0.17929809115379
  C   3.08684677091269     -2.51627670301023      0.52040036640271
  N   2.63719520797550     -3.54167819699604      0.79607515883845
  H   5.77476279015509      2.66518057543699     -1.17504816776131
  H   6.63962822964491      2.18938474191153      0.29958895200905
  H   5.44911386815510      4.38957850630444      0.51276178966539
  H   4.92056083481850      3.18434932522993      1.70727519545423
  H   3.27013203250957      5.64677759180168      0.13429811577382
  H   0.79738940052337      4.93790417340638     -0.75110089991315
  H   0.79989371317261      2.24667700400614     -0.91159671521275
  H   7.14962135155155      0.83721911099786     -1.02675786419281
