28
Coordinates from ORCA-job 12966optt
  Br  1.39451313322653     -0.75892629020203      0.54795535757525
  C   3.14586109444091     -0.15462958103955      0.04619743539664
  C   3.63498875285099      1.09021993670114      0.44605581914218
  N   5.03809762351777      1.30619554725406      0.26240112612718
  C   5.69490645555228      2.39302772077147      0.95182603389757
  C   5.69263374299415      3.73771818408153      0.17169240329898
  N   4.58933384969656      3.96925135529603     -0.73077875485059
  C   4.50131122363067      3.31454547329582     -2.04686875564856
  C   2.96640986160062      3.27522464489539     -1.88889178046368
  C   3.18302897598796      3.74253832333689     -0.44174109594559
  S   2.69106580091452      2.50153969240431      0.79810574991014
  O   1.28593001914326      2.27476974584101      0.56459034200375
  O   3.06201540515644      3.07797590505790      2.07803841527044
  C   5.76282550922996      0.50453652604889     -0.62354427404826
  N   6.97658743506881      0.74473722971624     -1.01990686412644
  C   5.07099658014001     -0.67406174321427     -1.05214813564983
  N   3.84672703665967     -1.02492974061997     -0.62976596415437
  H   6.72714958877599      2.10070008034408      1.15565034984147
  H   5.19762972616425      2.53054510437838      1.90646627091975
  H   6.59200151779635      3.81198076848013     -0.44518262615281
  H   5.73575595281017      4.54813096890810      0.90535971307707
  H   4.96829173256029      2.33013850375073     -2.10507324156043
  H   4.88537924364157      3.94029719732587     -2.85650841695400
  H   2.50705374606043      2.29270590957499     -1.97900937057784
  H   2.42685394120757      3.99568741601645     -2.49893643635470
  H   2.62888646768521      4.62026197143393     -0.09184481100209
  H   7.32483146178507      1.62956269809731     -0.66797316491173
  H   5.60993412170186     -1.35574354793487     -1.69416532405950
