23
Coordinates from ORCA-job 12977optt
  Br  1.14590573811799      0.09600486938852      0.89092930048124
  C   2.92863911247984      0.16541502872394      0.28881067743481
  C   3.60040872010814      1.39676032717349      0.22928515846873
  N   3.20878920423373      2.63512089394547      0.58031532869732
  C   4.26295534648345      3.44561833275012      0.40580951953112
  C   4.13427673270518      4.90780775333940      0.29455881806450
  N   3.68976858140269      5.33722364393192     -1.05808311867440
  C   2.92192684189372      4.69246945795572     -1.93951608970640
  N   2.79545038368146      5.44719994548445     -3.00900366631870
  N   3.50516096687056      6.55959219880047     -2.75574856890486
  N   4.04442793730392      6.50370152609962     -1.59077797302640
  N   5.32202337774705      2.75362459237616     -0.20909707487312
  C   4.95919061801964      1.41940789240397     -0.24554987147868
  C   5.60957771911221      0.28485140260820     -0.60423708792904
  N   4.89443786293788     -0.90286000044021     -0.51279111293548
  C   3.56704971892838     -1.05135564943735     -0.07994014972322
  O   3.09406241554381     -2.19189733914701     -0.05678793245761
  H   5.07326351467926      5.43671419773176      0.45776564107605
  H   3.39249765391283      5.25670193072638      1.01112198679454
  H   2.50248741413872      3.71572900880371     -1.76010033701048
  H   6.27572537825698      3.07002460281106     -0.19255280442368
  H   6.62285378849039      0.22960790394413     -0.97129826106781
  H   5.32712097295204     -1.77646251997399     -0.76011238201841
