23
Coordinates from ORCA-job 12970optt
  Br  1.10929868668654     -0.02318227483228     -0.96708663732141
  C   2.74036783632192     -0.20075249448211     -0.01195827595131
  C   3.66535091152152     -1.20985114644221     -0.32116714221267
  N   3.42974645587901     -2.39945292637385     -0.95191960702127
  C   4.59947327979168     -3.04538980371569     -0.95527239584606
  C   5.63195789964869     -2.29596144784966     -0.34689768261340
  N   6.99051348501595     -2.63854291025844     -0.13892802843184
  C   7.42164001939820     -3.29342441019198      1.10355694469295
  C   8.81479143991853     -3.79980623696684      0.69817843092982
  N   8.79080846206250     -3.87379878140578     -0.77346326326163
  C   7.77261153632014     -3.18978998926729     -1.12540965192533
  C   5.02337544527728     -1.11134716508147      0.05179776776977
  N   5.62158931548662     -0.00399547279704      0.65738961080999
  C   5.01131341464179      1.14335898169380      1.02532768649110
  O   5.59368631466081      2.08633662228968      1.52636296062830
  S   3.24249781602713      1.26995833396589      0.79836005876596
  H   4.70169130564406     -4.03049563704041     -1.39438370736971
  H   6.73169045483610     -4.11291322505384      1.33550872434754
  H   7.42914783081144     -2.59734197762895      1.94156839877059
  H   9.06337099268936     -4.76684097306943      1.13475073895431
  H   9.59223149175504     -3.08895506830138      0.99801274970414
  H   7.49478952450467     -3.00573049295917     -2.15758929556742
  H   6.62605608110092     -0.00608150423151      0.77226161565756
