22
Coordinates from ORCA-job 12979optt
  Br  1.33946801565794      0.03137604002724      0.54146640545094
  C   2.99325709215971     -0.31514960882773     -0.38687914004333
  C   3.80467442489195     -1.40687208067904     -0.02932906561634
  N   3.47092036061431     -2.62226867034198      0.44729792970201
  C   4.64429148456853     -3.27936171949534      0.56303570243612
  C   5.73395736740722     -2.50041360016102      0.17962780551951
  N   7.08671219677556     -2.91750388972648      0.12414424863578
  C   7.53022114452908     -3.93773459692520     -0.73384368169871
  N   6.88407297022052     -4.64884333599384     -1.53534774642369
  O   8.87206320810609     -4.08650700739584     -0.57177079113788
  C   9.35429564940099     -3.13208686712361      0.35548556336597
  C   8.12911698009955     -2.37163177767437      0.82208930616966
  O   8.10472437048300     -1.47894197869237      1.62860292393472
  C   5.19974583966823     -1.25653646146251     -0.21246833259404
  C   5.69597889010129      0.04495638461285     -0.47503750328520
  N   4.96527155455146      1.06480119304885     -0.76399459634591
  O   3.57219233065767      0.80307959936344     -0.89283548971827
  H   4.68201408283408     -4.30310586172866      0.91227446514755
  H   5.90137559374194     -4.38147880729325     -1.50563719078008
  H   10.06234805654297     -2.45692395462548     -0.12799320175869
  H   9.84123670981285     -3.62919355477799      1.19492439941591
  H   6.75206167717490      0.28434055587237     -0.39281201037601
