21
Coordinates from ORCA-job 12972optt
  Br  0.99873699120622     -0.00068772963138     -0.13883196199025
  C   2.88930377817031     -0.02995617196779     -0.03897066787732
  C   3.61313110271679     -1.24379919661567     -0.02547645991855
  N   3.23912065065002     -2.54525913259201     -0.05686262453078
  C   4.37745521127298     -3.24967153420498     -0.03052749041687
  C   5.51527911122825     -2.41642968809715      0.01947581516621
  N   6.86780161831553     -2.80592628965978      0.04212290841491
  C   7.95053403285229     -2.01416754100725     -0.02637541483007
  C   9.01521250885958     -2.88990762176072      0.02186780974567
  N   8.51901320949619     -4.15218379069810      0.11627959988436
  N   7.22789383341643     -4.09074431079364      0.12917623924609
  C   10.40569401788348     -2.60245824870521     -0.02124802664528
  C   11.57749713009656     -2.34594653237412     -0.06089955705574
  C   5.01357906408606     -1.12180887154621      0.02290364112936
  O   5.67159996555929      0.08262621929730      0.06065731919332
  C   4.82541481881320      1.17358973761773      0.05295356426804
  N   3.53753232290370      1.13352035641374      0.00280660901279
  H   4.38714176616567     -4.32894360607076     -0.04628155068023
  H   7.87494867059063     -0.94478792285507     -0.10177848128221
  H   12.61534858977354     -2.12112275704257     -0.09658695704024
  H   5.37476160594313      2.10106463229366      0.09059568620678
