24
Coordinates from ORCA-job 12971optt
  Br  0.95168717541034     -0.65823670741476      1.17386374114829
  C   2.58492495640992     -0.33160221597152      0.29124545240550
  C   3.50627746957404     -1.32437260522379      0.10320552655180
  N   3.38686258736780     -2.65772857450054      0.22382966058035
  C   4.60428407275538     -3.17661519710148     -0.05273419700026
  C   4.85021569570179     -4.63635650990668     -0.11117839653953
  N   5.62943401803553     -5.15977545639111      1.02536814578440
  C   6.48219945358000     -6.22926631124368      0.99551942647765
  C   6.91935457902110     -6.39167260203240      2.28210092461040
  N   6.35443316136415     -5.44926684843157      3.09600676904404
  C   5.58798259509613     -4.72996927060656      2.30663736699420
  C   5.58571707886225     -2.17833682522344     -0.33325312643706
  N   6.84710277784863     -2.19740734470937     -0.60928115522583
  N   4.83572979471193     -0.97614558677337     -0.26167006051225
  N   5.44374334165269      0.16419595966329      0.17320637045791
  C   4.73445676691898      1.20273418778463      0.31624518523424
  S   3.01435966760502      1.32539284392804     -0.08282733544078
  H   5.42423748079862     -4.89749016949733     -1.00566855792811
  H   3.89113790982907     -5.15456896465338     -0.14852314890799
  H   6.69995154721958     -6.75414635701876      0.08103649879698
  H   7.61533320476765     -7.12353687185055      2.65941406436840
  H   4.98650437524273     -3.88154606546946      2.59245045422288
  H   7.18025827550198     -3.15778169472968     -0.55354187056355
  H   5.22081201472455      2.09449918737354      0.69354826187832
