21
Coordinates from ORCA-job 12981optt
  Br  1.78649112021683      0.41926231459740      1.92649750481098
  C   3.17938798927721      0.12084738654647      0.67592332981696
  C   3.63738768800150     -1.17437185112143      0.35136285099075
  N   3.31935288522772     -2.44433755759675      0.72596136382839
  C   4.15544303246122     -3.17643093153045     -0.00868583464829
  C   4.19767312803629     -4.67034938966103      0.10001266032418
  N   4.66056506248048     -5.27033992828096     -1.14420195861858
  N   3.86483283991582     -5.18036662712136     -2.23312886987793
  C   4.48827662278869     -5.50911467309630     -3.29729118544710
  S   6.14953294377680     -5.95325987092016     -3.08739007718998
  C   5.96602149187663     -5.63645772334302     -1.32821653334967
  O   6.82618991775951     -5.76728399748066     -0.49698787682747
  N   4.99986862414348     -2.51670678034928     -0.84234745202525
  C   4.65870908987471     -1.25964240330295     -0.60228844714691
  O   5.21249839887861     -0.17007623788324     -1.21457071184597
  C   4.67325450637912      1.02482668784848     -0.79249231544977
  N   3.73203658156747      1.17673316842688      0.07718009575362
  H   3.20526788488750     -5.05647435211296      0.32799343325032
  H   4.89676912268884     -5.00473196315286      0.86775501443434
  H   4.00178106401343     -5.50263133124576     -4.26022082006921
  H   5.13566000574810      1.86590606077998     -1.28486417071341
