28
Coordinates from ORCA-job 12985optt
  Br  1.16396198169347     -0.23793179019224      0.10860123778373
  C   3.06594768846314     -0.15219891543116      0.01060261117550
  C   3.77683730034419     -1.37365827168065     -0.08667684173106
  N   3.15662643461239     -2.56596283002056     -0.17021280317436
  C   3.91075527475057     -3.66655477465936     -0.15861726647528
  C   5.33995904243929     -3.63602057119253      0.27060911934536
  N   5.94684910472057     -2.42905664529781     -0.30091358590909
  C   5.20819141798554     -1.24990623687649     -0.14134026432599
  C   5.79708644434081     -0.00678467668547     -0.10100927223060
  C   7.25793508220843      0.33476765929451     -0.17242439942296
  N   7.29099766744490      1.76063734770813      0.19783691583046
  C   5.96216958752268      2.35547665309004     -0.04323525940994
  C   5.04577518604562      1.16666493935125     -0.01306651508390
  C   3.66397542618176      1.09800499592363      0.04435086901007
  N   3.18772527069519     -4.85829645703802     -0.15941533126214
  C   3.57949777728004     -6.14739724739378     -0.18991506572955
  O   4.73709090112093     -6.56284542435654     -0.21138771174899
  H   5.87430734485107     -4.51897154591146     -0.06748911075222
  H   5.39278219411910     -3.60837943460728      1.37664297460404
  H   6.91539063015472     -2.32019199722791     -0.03315792679945
  H   7.65225211222097      0.14758568404038     -1.18275636657549
  H   7.86687672918475     -0.25117051099467      0.52580497720899
  H   8.01314864534485      2.25512282170516     -0.30599148618184
  H   5.91198781314758      2.87279634595191     -1.01486703269157
  H   5.73249303196255      3.09449332731937      0.73013235856686
  H   3.04975832576310      1.98665001525562      0.11435039340214
  H   2.19175521328270     -4.68609668617844     -0.18663135303852
  H   2.71286637211893     -6.82777577389557     -0.19682386438420
