28
Coordinates from ORCA-job 12987opt
  Br  1.07621737714284      0.00713611101774      0.25879394077893
  C   2.98307366551022      0.02248240994989      0.17403626004318
  C   3.64097113306097      1.24050700875219      0.11023068734819
  N   2.92397039931597      2.45454817440528      0.06104955871815
  C   3.64274266571516      3.66211146769486      0.40394905818244
  C   4.99385644007010      3.62986102846519     -0.33986730419569
  N   5.79140424309069      2.49039741838402      0.03805914425326
  C   5.04592941168535      1.25970773676426      0.01032479401948
  C   5.72944765617952      0.03414603165236     -0.00478952271528
  C   5.07920740247751     -1.16822567814477      0.06226759881762
  C   3.64788689960402     -1.24298579288785      0.11836130762698
  N   2.98099383300388     -2.41095789220816      0.16224420565287
  C   3.65979699024476     -3.52594640065611     -0.03935170463962
  N   5.00034215352550     -3.50842592998614     -0.50742189504226
  C   5.81132997417292     -2.47978303285832      0.14225563720362
  C   3.86868282472444      3.83124173420861      1.85233974541881
  C   4.06494196049558      3.94455381440436      3.03060973519438
  H   2.00659996601887      2.38152888692575      0.47759153415595
  H   3.06033118572307      4.51825844765051      0.05192301249464
  H   5.54716934490651      4.54907121833913     -0.14015601623123
  H   4.76743792125305      3.56896695389700     -1.40715607581417
  H   6.17008351456913      2.65138854204344      0.96999979930760
  H   6.81451064007571      0.06039012981631     -0.06317903693440
  H   3.13369395879031     -4.46718605098917     -0.13451654514553
  H   5.42391703097525     -4.42206083087694     -0.42965764423247
  H   6.78065256702931     -2.40686663877975     -0.35776082600967
  H   5.99415354869959     -2.73485343868538      1.20040406746206
  H   4.22365529193965      4.02599457170165      4.07841648428216
