20
Coordinates from ORCA-job 12984optt
  Br  1.02518161381425     -0.41285986440249     -0.37675739514496
  C   2.90653622704400     -0.17358726629468     -0.28427056635025
  C   3.68039243928330     -0.96955861485628      0.53314638362514
  N   3.09188474566345     -1.94850933454720      1.29597834061797
  C   3.83191388547608     -2.76712355275149      2.13734309163450
  C   5.18359973334071     -2.60028758857107      2.19518862933774
  N   5.85451941477551     -1.68605639652585      1.48068872751427
  C   5.11321044209593     -0.88217278711477      0.66549051684781
  C   5.72672397222394      0.09973456515541     -0.12947207335589
  C   5.12874611729310      0.99823998618062     -0.99473751087394
  C   6.20846222786935      1.71869464976699     -1.54485948686416
  N   7.35058013357893      1.31756080544910     -1.07098718440599
  O   7.05821538351668      0.29483725895428     -0.17221375028450
  S   3.43986013567634      1.14310493690834     -1.27086956990969
  O   3.13570101687449      0.90508559223965     -2.66628970187802
  O   2.94006271380993      2.40258425752040     -0.76095866369871
  H   2.09207957552426     -2.04571297718692      1.24337934905325
  H   3.28270774967481     -3.49924553258233      2.70748939680588
  H   5.76735685681665     -3.23681445212625      2.85058133580368
  H   6.18026561564823      2.51608631478453     -2.27086986847413
