23
Coordinates from ORCA-job 12988optt
  Br  1.03221884196285     -0.74436904318953      0.60828240693642
  C   2.88926389129243     -0.38401402331433      0.44224290103579
  C   3.72900172601278     -1.45141654335090      0.13929009477206
  N   3.41204109082513     -2.77028450866177     -0.07223645078219
  C   4.56964961512818     -3.36176111265082     -0.34570632402469
  C   5.71329913779757     -2.48687891740325     -0.33236510854377
  N   6.99826612257601     -2.71199262793973     -0.55475053091174
  C   5.12439572227908     -1.20814865069688     -0.00137444010377
  C   5.64582787477229      0.06495024512954      0.16164529598501
  C   4.79683865744654      1.10993934881702      0.48853831625223
  C   3.40984345868871      0.89747612906501      0.63194115423695
  S   2.34741770882802      2.23521858665103      1.09361143736796
  C   2.68634826003759      3.40738336350049     -0.16739159844181
  C   3.88161048453264      3.83030871982446     -0.57114111313291
  C   5.17921677586924      3.56771289190409      0.09626215508794
  O   6.02543676697428      4.44899366535067      0.11626775735563
  N   5.38370617220834      2.38540807997181      0.73834854540556
  H   4.61187661226828     -4.42483213206827     -0.55882986443023
  H   7.12381501874246     -3.70247096663463     -0.76732311798908
  H   6.70826539602787      0.24185933858711      0.03603071747571
  H   1.79631677650154      3.82812418793919     -0.62403959345227
  H   3.94822763911498      4.57713730936508     -1.35225700175794
  H   6.31211625011316      2.34665665980459      1.13695436165915
