24
Coordinates from ORCA-job 12995optt
  Br  1.20217227960552      0.22743828489358     -0.07676002503379
  C   3.13870034220513      0.16001251323351     -0.09741009453831
  C   3.75400554452034     -1.09649640802877     -0.09373831483521
  N   3.05307672186984     -2.28612217137140     -0.08221133476819
  C   3.73898634513219     -3.48072781100853     -0.07869743369994
  C   5.09934838369683     -3.45585833544413     -0.08650133359971
  N   5.83886297450132     -2.32569690287344     -0.09860526343985
  C   5.15286647601836     -1.15271353625808     -0.10276060768874
  C   5.92134907569544      0.09794043476373     -0.11757845079239
  N   7.22822560295991      0.08889342155496     -0.12419533143955
  C   5.11566193237953      1.30874560443874     -0.12527852169485
  N   3.78439562429563      1.27652631607918     -0.11356723250329
  C   5.68802239941355      2.68207767276579     -0.14738808191213
  O   5.01714392180119      3.69704986993530     -0.15323053360497
  N   7.07426055591333      2.71880005762776     -0.16150509118318
  C   7.77273326870939      3.89526669591531     -0.17920686625093
  N   9.03978605826127      4.03164003081475     -0.19024787823437
  H   2.04693680160314     -2.24806570161325     -0.07740375398763
  H   3.15452003605440     -4.38762796105265     -0.07023262775839
  H   5.64123774249825     -4.39477322748646     -0.08312573215014
  H   7.55354696054525     -0.87339274820446     -0.11704815878758
  H   7.54000605909092      1.78846579594289     -0.15276058450402
  H   7.13418399027368      4.77470785394213     -0.18325361892472
  H   9.49197090295550      3.11591025143353     -0.18429312866810
