21
Coordinates from ORCA-job 12999optt
  Br  1.38610528571058      1.57412315791446      0.28496069934690
  C   3.19667040490164      1.13056809381663     -0.02779364899354
  C   3.64934572315253     -0.17164792231916      0.11264883527893
  N   2.98543377364303     -1.30494018810413      0.46620397714062
  C   3.90556262753738     -2.27073576379105      0.40308032280414
  C   5.21767420517520     -1.84454741125110      0.00705333321318
  N   6.33585073650239     -2.52927735483444     -0.15205194850657
  C   5.03494566994919     -0.41278822590230     -0.18763252877674
  N   5.89746624031907      0.51646051056342     -0.56915337713130
  C   5.44939413239177      1.76189977292041     -0.64768077775254
  C   4.10254569733005      2.10342461518974     -0.41656025789458
  O   3.63348185143437      3.37824116561775     -0.71526136601425
  C   3.79279575505978      4.35580988416058      0.21015834548222
  N   2.87317525576552      5.10080190413034      0.62141457698877
  S   5.44949021079562      4.62056353248197      0.78433984939506
  C   6.44535712792283      3.88015092751064     -0.51142004030402
  N   6.40083587282331      2.72712100730117     -1.00934419953199
  H   3.64445126379558     -3.29638631105329      0.64058499374526
  H   6.14069974779583     -3.50930353189588      0.06112118380244
  H   1.98216893531856      4.76379517306629      0.25437367904111
  H   7.24254948267571      4.55266696447793     -0.82004165133310
