21
Coordinates from ORCA-job 13003optt
  Br  1.13299689500159      0.20044043880572      0.06818528053210
  C   2.99861891176984     -0.00864698982580      0.07033337954444
  C   3.61422704123874     -1.23407323027846      0.07015209864819
  N   2.92635765742136     -2.39812540712271      0.06902939782395
  C   3.66801739023994     -3.48091028252415      0.06858826668137
  C   5.06138132307675     -3.47498580398481      0.06898539567281
  N   5.75963369111678     -2.33893197592754      0.07023485853655
  C   5.07543121294040     -1.18444835902949      0.07112566819830
  N   5.73413047158506     -0.03410010030221      0.07285216566454
  C   5.07280385649015      1.14104013621274      0.07398459406003
  N   5.56103989561978      2.31712987425047      0.07678498611402
  O   3.65809261278285      1.14854338567242      0.07189627920918
  N   2.97177711130232     -4.73534997629346      0.06766663943624
  N   3.61762536556839     -5.88648193848372      0.06641655099587
  C   2.65478924254339     -6.79919771800595      0.06599529919391
  C   1.42698586332327     -6.13532350598583      0.06711368692783
  N   1.66003115226302     -4.82742384606457      0.06810431919569
  H   5.61222222635043     -4.40554786347748      0.06831787423964
  H   6.57135815239479      2.21201471754641      0.07802062739715
  H   2.88769224991494     -7.85030911063721      0.06495822836054
  H   0.42078767705617     -6.51731244454434      0.06725440356765
