27
Coordinates from ORCA-job 13016optt
  Br  1.80538334274163     -0.45120660446304     -1.18561379319982
  C   2.30789694167368      0.78301136251358      0.20061369884492
  C   2.85089779192667      1.99274607672045     -0.16729197582126
  N   2.80023263954655      2.56542278761135     -1.42531903397538
  C   1.54934155499567      2.74648599291970     -2.16959414660773
  C   0.86152154273198      4.13538148875994     -2.06075565453127
  N   -0.33170671580135      4.24227485030968     -1.19293036139830
  C   -0.01106017247942      3.87673963832606      0.12682579647880
  C   0.13813924066848      2.66724066418085      0.70567369273674
  C   1.03834898518659      2.84694570197962      1.82195698621832
  C   1.19481074298041      4.19951002500913      1.91481417691981
  O   0.57062984901178      4.84533042759217      0.87112588152504
  C   1.96827760233534      1.83213470098537      2.31362760742691
  C   3.31290585167740      2.25547615643293      2.09384137872653
  O   3.50159205814566      2.76539605919192      0.71065241940305
  C   1.81908086225010      0.52594974974294      1.58553266021270
  N   1.30736700166688     -0.55775119594734      2.02495111000559
  H   3.39847041580185      3.37996310708073     -1.44935282893253
  H   0.85081601350627      1.97743693007749     -1.84849530551739
  H   1.76279036191105      2.55454439698299     -3.22485088962847
  H   0.55088918811466      4.45204090372219     -3.05905558414232
  H   1.58088555255174      4.87354114762594     -1.69888246248015
  H   -1.06948136233075      3.64433855680380     -1.54336404637475
  H   -0.17931212757160      1.72475496174579      0.28746690759857
  H   1.81154790024176      4.81014388475930      2.54901211076451
  H   4.12594606693312      1.55748690865726      2.28778384798776
  H   1.32778887158385     -1.27333867932085      1.29562780776013
