27
Coordinates from ORCA-job 13011optt
  Br  1.24960047950684     -0.29631063305707      0.91499418032835
  C   3.04547579381559     -0.09720398487286      0.30010475906897
  C   3.65205415122069      1.18265456863419      0.23481196411361
  N   5.06790453313947      1.18325199524467      0.00104540686447
  C   5.89736218186256      2.20040564362882      0.63047798585582
  C   6.06366975140285      3.45161399210840     -0.23880636761044
  N   4.81774734242162      3.86958466667649     -0.86907461584483
  C   3.68676375615112      3.68161112699700     -0.04540817981246
  C   3.08090230508221      2.47100896177457      0.30005336917607
  N   1.77743874825204      2.81540750875516      0.69736606711458
  C   1.52663491599732      4.15499778909765      0.55503210601536
  O   0.50510193427049      4.76100860418880      0.85801506536160
  N   2.67840106699077      4.67002209187265      0.02225138953134
  C   5.67374567736049      0.04851061268247     -0.46069210228464
  C   5.04195741098844     -1.12557308518581     -0.59047392816058
  C   3.66469778257139     -1.30778085382393     -0.10685744994933
  N   3.08379533730419     -2.47806875142303     -0.05779281267204
  H   6.87505266383523      1.76843778924569      0.85649904606445
  H   5.43270878713829      2.47504508061404      1.57824499558362
  H   6.79225875277249      3.26401039538572     -1.03300131713843
  H   6.45425307983004      4.26131477224960      0.38672743740264
  H   4.70713856009312      3.35572648613603     -1.74279045758648
  H   1.08508251909606      2.16554519421995      1.02676421466869
  H   2.85230473038183      5.65901175898950      0.02382687468739
  H   6.72350423575333      0.16329375750965     -0.71032054715664
  H   5.56599399772557     -1.97886539118743     -1.00051520059853
  H   3.73044950503584     -3.17966009646098     -0.41048188302257
