20
Coordinates from ORCA-job 13023optt
  Br  0.96586504794345      1.63111776359646     -0.05334826666577
  C   1.14228900795564      3.10661908360451      1.11647186568676
  C   2.36887427116908      3.46207282842273      1.60002613921904
  N   3.46903851349932      2.78444116914762      1.25472014541505
  C   4.64789582381682      2.83459071937763      1.86620089837218
  C   5.10288160860734      3.53051365582654      2.99430299956282
  N   4.53242091796598      4.47069094529568      3.73076479297263
  C   3.33342458213647      5.00585896744404      3.42479343585939
  C   2.77406177335643      6.12614093616125      4.01995792030461
  N   1.57964121536328      6.45948816493519      3.45915243775726
  C   1.38541975852567      5.56030385358300      2.53984377050839
  N   2.39596670245211      4.62807140258392      2.45064828094622
  S   0.02650208649749      5.43906534330911      1.44765489925477
  O   0.40170203306045      5.94572542274732      0.16655599811625
  O   -1.17777609854453      5.88097336772603      2.07892910121451
  N   -0.05686917231046      3.79986257611174      1.36401547979410
  H   5.38904890017217      2.16798306110951      1.42946547791352
  H   6.10670871687080      3.25698399448030      3.31267118016813
  H   3.21730812335303      6.69285116395465      4.82155065033738
  H   -0.66540381189059      3.42864558058262      2.08762279326269
