21
Coordinates from ORCA-job 13021optt
  Br  4.28962852003263     -0.96105825240914     -1.83380850684713
  C   3.42942211017085     -0.29321714915127     -0.28765402742158
  C   2.52370079651575      0.78852164065105     -0.38915663302233
  N   2.31413542817644      1.36049802487716     -1.57949066907217
  C   1.53914945286663      2.33744950797903     -1.95920601027680
  C   0.58903858345906      3.19641597503184     -1.29429970139031
  N   -0.08471641334038      4.11919331978571     -1.91854996571917
  C   0.34222864956829      3.05821951462881      0.13969745219653
  C   -0.53536421397059      3.80057574089482      0.87156052452562
  C   -0.47483921929640      3.35952260172495      2.24352813453986
  O   -1.05473714870207      3.69760962607887      3.24492653591427
  O   0.47346287961055      2.34105741117709      2.29586371593151
  C   0.97091678826586      2.14049823043695      1.03628157720242
  C   1.90248683364844      1.16482863908378      0.85074751839937
  O   2.24484703844292      0.49077966631943      2.00121066431918
  C   3.15982269848023     -0.50945974649842      1.93456043272158
  N   3.73612385094156     -0.91115924262345      0.87042418978862
  H   1.61646792487399      2.56091098112713     -3.02590858985750
  H   0.17482641969466      4.11646393182303     -2.90518300300802
  H   -1.17410713218702      4.58327489118828      0.50321863089242
  H   3.34650615274860     -0.94392531212567      2.90523773018363
