24
Coordinates from ORCA-job 13025optt
  Br  1.13867966115920     -0.46373287217684      0.68609804424125
  C   3.00936091490641     -0.30460662758088      0.43529654373254
  C   3.76430681784459     -1.37643488191828      0.11568890197544
  N   3.31755388169891     -2.71975643765391      0.02290331025905
  C   4.35908201978825     -3.46676807365707     -0.67123926799793
  C   4.09824986933321     -3.56924341842525     -2.12174811272051
  N   3.86050000354985     -3.69549232211189     -3.23690481740552
  C   5.65730843463266     -2.67634320736001     -0.38479074744328
  C   6.82985754781728     -2.82602334826266     -1.37981054224302
  N   7.99276316233910     -3.23701728464419     -0.58930545461548
  C   7.55020277009252     -3.45971329746786      0.57275944639998
  O   6.25201903879781     -3.29419826803790      0.84397604262927
  C   5.15642079069537     -1.31242358713505     -0.12159404944961
  C   5.93456673429487     -0.15951368399827      0.03427222798547
  C   5.42798402026095      1.11267034480002      0.38450580603799
  N   6.05283661971644      2.23266295073212      0.56572469066863
  S   3.64527163291593      1.32340718417460      0.61489863371242
  H   2.38781245665813     -2.82245726081166     -0.36304397032849
  H   4.44615039784721     -4.48291582935144     -0.28120977603047
  H   7.02140767027547     -1.87639824464775     -1.87807691796509
  H   6.62960994126315     -3.57415911090359     -2.15070205034539
  H   8.15820834439464     -3.78228803386159      1.41117906615206
  H   7.01019017696228     -0.21838074733221     -0.10665983093744
  H   7.04865709275568      2.08412605763163      0.40678282368811
