26
Coordinates from ORCA-job 13032optt
  Br  1.05238677520934     -0.22071124343053      0.40342282487825
  C   2.94872078538276     -0.00245577367949      0.29430667108021
  C   3.54909102063947      1.26392608766304      0.34577454521029
  N   4.98141236719307      1.25243654767268      0.30684900375888
  C   5.66928540627368      2.38060299947453      0.89703355271369
  C   5.88564911898784      3.51837424526340     -0.11051928004262
  N   4.70481959174943      3.73638943715246     -0.94943746065290
  C   3.50007838314271      3.74115782891073     -0.18331216407721
  C   2.77545208752099      4.86882352598106      0.01088673108533
  S   1.35856859164310      4.57342770607659      0.92912362995681
  C   1.74245602301603      2.90201140273448      1.08237572835359
  C   2.91740849330064      2.55401003356514      0.43080604184159
  C   5.74615403808929      0.17286571942217     -0.17895063681323
  N   7.02249620939084      0.25098010268106     -0.43039138416456
  C   5.03411097747994     -1.05410662924178     -0.32014288235759
  C   3.68205048063280     -1.13593556709589     -0.01844450610706
  H   6.62089606319340      2.04431771746556      1.31396667070449
  H   5.05577012355711      2.74507691975516      1.72261907144644
  H   6.72056455870495      3.29149177987415     -0.77581973172096
  H   6.12049161524119      4.44291222708848      0.42448251855104
  H   4.65217525465016      2.95586646264966     -1.59887898318851
  H   2.99708706162643      5.84184343960760     -0.39634787558133
  H   1.09814661687252      2.26781997473448      1.66325221690616
  H   7.37067064004455      1.19650282300769     -0.32086668101208
  H   5.60168646552957     -1.91468583864008     -0.63987029423637
  H   3.16937125092813     -2.08694192869239     -0.08391732653234
