24
Coordinates from ORCA-job 13031optt
  Br  1.11468993920227     -0.27157073722414      0.14605269397170
  C   2.98942682577062     -0.09753711027482      0.02186830141168
  C   3.64156031363082      1.07921954882749      0.08731633611987
  N   3.11351358041354      2.37879740925577      0.35847470428271
  C   4.27481360894920      3.28053135780689      0.23975692672686
  C   4.19184738105450      4.39289657141350      1.18872256133021
  N   4.13823416971738      5.26464604274731      1.93208320614833
  C   5.56307114537042      2.42908262063700      0.39892550613063
  C   6.71393645256396      2.95382579273038     -0.44647696175634
  O   7.84363682837825      2.11043619550268     -0.40242072909840
  C   7.70561405340333      0.86212576086016     -1.04261049904166
  O   7.11830176739670     -0.12682295353041     -0.26622027990237
  C   5.73244854501717     -0.10745014566599     -0.21162988868805
  C   5.04099214151027      1.10073262560150     -0.03719901700145
  C   5.06512723611122     -1.34100483556021     -0.32348484673923
  O   5.51278994372932     -2.45639498466378     -0.50758181665677
  O   3.63380114556324     -1.27782988397751     -0.18961751251907
  H   2.69059941215526      2.42386237427104      1.27991372014220
  H   4.27218273169556      3.70946601416195     -0.76835118550052
  H   5.88945765299692      2.42268375855919      1.45195216774494
  H   7.05317176940408      3.92861944553151     -0.08630559625531
  H   6.36837376030683      3.06006125995114     -1.48489789407871
  H   8.72268891573425      0.52818578247655     -1.24043229170850
  H   7.14172067992475      0.99243809056277     -1.97683760506277
