27
Coordinates from ORCA-job 13036optt
  Br  1.06443853035340     -0.40781288173442     -0.53688474779677
  C   1.86165393963220      1.12044139079522      0.29249918069011
  C   2.92896256019133      1.76718851041839     -0.32771094462136
  N   3.12487813117653      1.76485044843119     -1.72278627296563
  C   2.03981101564107      2.47476132531404     -2.43323162253464
  C   1.61328400671661      3.86397545832725     -1.87099297039778
  N   0.38371651798606      3.74548114620141     -1.10738861885188
  C   0.27075117989260      4.16514304740359      0.06430639037512
  N   1.19516716467698      4.90276028734076      0.88916619877863
  C   1.06400464917488      4.13533147178960      2.17119111625327
  C   -0.44773038298633      3.87983158850879      2.20430163667065
  O   -0.81820650153737      3.83415578706103      0.81682649193528
  C   1.88506638819971      2.89356433133744      1.87878745547376
  C   3.21002781719898      3.12495811514556      1.47625111053673
  N   3.71362214306426      2.59469636256199      0.37783135303213
  C   1.30264306882549      1.74089313259348      1.37897948889213
  Br  0.02831520592058      0.35332254516805      2.94833625122096
  H   4.00381415796562      2.24082815588615     -1.89188075534766
  H   1.15623649127313      1.83582136621275     -2.44954201951155
  H   2.38252310711687      2.59138174766966     -3.46286571905461
  H   1.41450885610045      4.51726853933867     -2.72554018142619
  H   2.43006773221736      4.30311548726316     -1.28729606095518
  H   0.81123881063904      5.84108373880721      1.00511173551050
  H   1.42605026585894      4.73844968108651      3.00410582049515
  H   -0.98021084473172      4.70562399285272      2.68452467434475
  H   -0.71297676347085      2.92776674105267      2.65839330974497
  H   3.82534275290412      3.87211848316706      1.97450769950911
