22
Coordinates from ORCA-job 13045optt
  Br  8.17372646236228      3.18048955594054      2.16795537254897
  C   7.08529640264367      1.77373169093334      1.54619731394215
  C   6.06245465638159      1.25241580117821      2.25221434210466
  N   5.77099661948990      1.82714600030528      3.46949666111245
  C   5.03035874925815      1.26923572677953      4.38986785844435
  C   4.30710967039510      0.05168600676917      4.45167414157066
  N   4.04845779894351     -0.84628072090842      3.51959635829880
  C   4.46429595465853     -0.74739989164946      2.24308271723718
  C   5.31457786420174      0.13838527857621      1.60649334292838
  C   5.54538894579866      0.01033808997126      0.18817878507435
  C   6.59435542274126      0.65047229995500     -0.43064052920433
  O   7.49268323375485      1.37883952661693      0.30544781226733
  N   7.02222543833393      0.51823665593325     -1.71563532456804
  C   6.25956343180655      0.25049906635604     -2.68471785949946
  O   4.87820923432419      0.14879147822319     -2.60405945640463
  C   4.52096501209936     -0.87496650000435     -1.73241376414550
  N   4.78109502815734     -0.92742838507024     -0.51343630286621
  H   4.96117464430820      1.85792418028253      5.30692100099422
  H   3.86003317977619     -0.15081501321651      5.42374014201007
  H   4.06212421903224     -1.52277966902845      1.60176529051589
  H   6.64177914319326      0.10602513149738     -3.68801448149632
  H   3.96012888833942     -1.66154630944043     -2.22871342086499
