23
Coordinates from ORCA-job 13046optt
  Br  1.58143055198451      6.81896796366259      0.59013512649191
  C   3.19165497505450      5.81153305819778      0.35648257933309
  C   3.14233567770852      4.45106945611232      0.11751477142563
  N   1.90037095911682      3.86346104411863      0.02288413875225
  C   1.69114826868889      2.57569367644297     -0.12407372962805
  C   2.53338644417236      1.45915370399516     -0.11615652832461
  N   3.86268316513068      1.37336447092973      0.08219302462549
  C   4.65584391669695      2.41726980690167      0.12391338110040
  C   4.42464195285055      3.81297894117992     -0.01762994835313
  C   5.63159275246422      4.62102632171861     -0.19086958585121
  N   6.62204655020216      4.03089641319379     -0.80436247098242
  N   7.86216865019952      4.56661277058142     -0.90581330243764
  C   8.41010225392073      5.62947775157263     -0.23548235450395
  C   7.80602063876027      6.61002617530474      0.44273014525197
  O   6.48641766172483      6.84852535771976      0.64173628380118
  C   5.47733687229384      5.98905242559473      0.31715794785496
  N   4.31676601427963      6.50713627526992      0.51925989933362
  H   0.63716220990100      2.32255770916516     -0.25295022986271
  H   2.03212866654367      0.50268782803464     -0.23716133086784
  H   5.70021025968731      2.17612821394291      0.29867485498003
  H   8.50703451510802      3.90441979425794     -1.29397455148251
  H   9.48790599624451      5.68626553368026     -0.30927415316162
  H   8.40461104726639      7.39169530842261      0.88406603250518
