27
Coordinates from ORCA-job 13059optt
  Br  0.48675558055062     -0.79357271514338      0.15804122845264
  C   2.30427412573866     -0.43507727645097     -0.28589734832179
  C   3.31079433346982     -1.37164266021016      0.00244978630788
  N   3.25381738802530     -2.36160878143594      0.91009374761651
  C   4.47371372877929     -2.95507065658677      0.87114149402276
  C   5.33109794860419     -2.38155982886447     -0.07084483874426
  N   6.63928384914172     -2.80709837050987     -0.40645569233367
  C   7.65353948681709     -1.76070319407328     -0.38701669814402
  C   9.00148066493722     -2.31318042065112     -0.83257845430443
  C   8.98358535850065     -2.80591054939603     -2.25481053477626
  C   9.30800191399170     -1.87399413638652     -3.34892696433473
  N   10.23968112816443     -2.95135995858408     -2.99251644756391
  C   4.59375980594823     -1.34201671443364     -0.65560418675983
  N   4.96290267556370     -0.52156864974344     -1.69782754603182
  C   4.14647823727918      0.34070617114971     -2.15488799189308
  S   2.51579882156174      0.70214465124909     -1.59804769047115
  H   4.70164412933793     -3.79875115667431      1.51235907016198
  H   6.90894090003276     -3.56510246884266      0.21049016214598
  H   7.75021567967710     -1.30172632074184      0.60880334036701
  H   7.32688551890717     -0.97881521405098     -1.07356339541035
  H   9.30008074403363     -3.13229258858203     -0.16676070208882
  H   9.76338221959348     -1.53155949836553     -0.73484223159954
  H   8.26122458176887     -3.58629044868781     -2.45632318721107
  H   9.56678392932736     -0.85815805675054     -3.07227656306131
  H   8.83559992249927     -1.98086123819893     -4.31607514446691
  H   11.00048366422166     -2.57247781865835     -2.43663329618467
  H   4.43279366352703      0.97154789962390     -2.99248991537314
