23
Coordinates from ORCA-job 13055optt
  Br  1.80030234869204     -0.62343558236424      1.45392242182084
  C   2.99971953452109     -0.16531189213363      0.02299922361200
  C   3.49024307201667      1.12435849956306     -0.06043477037767
  N   4.79216036827984      1.29400968314924     -0.61025346159990
  C   5.12217976157627      2.67397991941479     -0.55512813498190
  C   4.07707717715623      3.35210670785965     -0.03549715163171
  N   3.87391801527611      4.69938760837432      0.19105661608329
  C   4.61805303542943      5.66799735335694     -0.57133916065981
  C   4.19323759712254      5.73644742773349     -2.01851745317854
  C   3.22917763911814      6.73937241022772     -2.46810130891567
  O   4.61391311745244      6.88082820941727     -2.74941704130798
  C   2.99234573472165      2.41609184179876      0.30575383345690
  O   1.87856558956415      2.77710799607889      0.74327944457117
  N   5.82272554928506      0.43781879531222     -0.24952233181105
  N   5.63956025816715     -0.77160139425384     -0.19195475598146
  S   4.02755527068460     -1.38056401740953     -0.62496712879380
  H   6.08458686243862      2.99083498948890     -0.91930269609742
  H   2.88557753338592      4.88320534513135      0.32866110463928
  H   5.67955737390020      5.41169039641939     -0.51756163859934
  H   4.50553824849805      6.65999662596970     -0.12664192998841
  H   4.24794695632283      4.80096879450273     -2.56781053028547
  H   2.83241504072595      7.44717520651375     -1.74667844072957
  H   2.60264391566496      6.53753507584901     -3.32954470924378
