21
Coordinates from ORCA-job 13052optt
  Br  1.07816197003839      2.10101819017725      0.02110384781203
  C   2.02101946345715      2.66876807213608     -1.52580029350613
  C   3.38380562570226      2.61957454863384     -1.48006658431327
  N   4.04494970878544      2.42266672334571     -0.25080306324628
  C   5.12899071233302      1.78118451126900     -0.13094919327332
  C   5.94012956637657      1.11227804382565     -1.16445989131844
  N   6.09507528080654      1.45660770368320     -2.38157703772908
  C   5.39595958981893      2.48802695282822     -2.98790900658052
  C   4.18840978632950      3.00669704942565     -2.64750953811894
  S   3.57946910639627      4.28927427463012     -3.68781103109241
  C   1.87444084975857      3.92791269707406     -3.62353851951858
  C   1.27331854135679      3.15288057693819     -2.62957204889840
  C   -0.14459910390131      3.16815770116653     -2.97346875327766
  N   -1.13564420972648      2.55246215929645     -2.36570047465355
  C   -0.18390207102474      3.99713633649756     -4.15457871383308
  N   1.01858318901728      4.44207226398150     -4.53113437003450
  H   5.53495762719109      1.70122106079804      0.88030475755389
  H   6.56088172691569      0.29015079514025     -0.80594197247374
  H   5.84431041364868      2.82455551627219     -3.91389915928865
  H   -1.99572914487553      2.77281177784144     -2.87075400373868
  H   -1.07758862840413      4.24054304503902     -4.71593495047068
