17
Coordinates from ORCA-job 1307optt
  C   0.99664593515417     -0.22909611088247      0.26496100492885
  C   2.44784489469312     -0.13341744677741     -0.19561780826420
  C   2.77854395774486     -1.23197531881881     -1.19980919724007
  C   2.73436657027449      1.27202819712369     -0.74864343643155
  O   4.09568758394450      1.38390169937383     -1.10971274961295
  C   1.91212138563946      1.67487271982089     -1.97209152739600
  O   2.54901168350214      2.35265978198485     -2.87826872880298
  H   0.75756670253009      0.56397254055877      0.97964317713195
  H   0.79308217426173     -1.19214057753884      0.74156726097969
  H   0.32994155260289     -0.12487590060314     -0.59483263628204
  H   3.10097557398508     -0.26237058950816      0.67722136252734
  H   2.12196803353028     -1.15387500319312     -2.06812894074181
  H   2.65591629121465     -2.22192545470387     -0.74806032384416
  H   3.80688514250550     -1.12499667585475     -1.54649324269606
  H   2.54379927805870      1.97174161599977      0.09629857539013
  H   4.00594205355755      1.84705214797828     -1.97827138304899
  H   0.84470118680078      1.87344437504047     -1.79176140659713
