24
Coordinates from ORCA-job 13072optt
  Br  0.96119201714208     -0.03215858925593      0.91722311492971
  C   2.81408343831707      0.06600988181623      0.40670133780021
  C   3.52883078287887     -1.08775741754034      0.30493890689771
  N   3.16525074914755     -2.45886452107735      0.45259311520205
  C   2.19537458912854     -2.93328191388630     -0.54286917197793
  C   1.88676096677136     -4.35209865862423     -0.33108470200641
  N   1.65676281527692     -5.46467538383735     -0.18073868931135
  C   4.41120027881642     -3.15187612555792      0.40818982982039
  C   5.42418929833404     -2.29074641304874      0.18856716893985
  C   6.85743624621739     -2.71633231005031      0.09297614840587
  C   7.72020129757941     -2.25123829599032      1.18469501419165
  N   8.42910417370279     -1.94702754521468      2.03160133328706
  N   4.92832799587589     -1.01002370129759      0.09417304879483
  C   5.52312898854936      0.24223496982387     -0.26638158244073
  N   6.76920491237115      0.39432184904191     -0.61336201440797
  C   4.61090879677892      1.32308063842358     -0.19205626140035
  N   3.31270104155221      1.26677309503912      0.17675230725725
  H   2.58156171935620     -2.81643152284375     -1.56467530635633
  H   1.27516462966273     -2.35836272252043     -0.44935646436461
  H   4.46124530938478     -4.21280784344463      0.58916901610623
  H   7.30314433269680     -2.41315740361607     -0.85502208270828
  H   6.86884079545663     -3.80725356994473      0.11846362077338
  H   7.30500474940366     -0.45810148747370     -0.56868891225323
  H   5.02138007559907      2.29577499107970     -0.42480877517899
