26
Coordinates from ORCA-job 13082optt
  Br  0.88680975805533     -0.22730217782807      0.22574111527049
  C   2.76819100828959     -0.12052643425450     -0.00730221108631
  C   3.40137816710321      1.15808064431060      0.06148752210313
  N   2.69064071981402      2.27417651334504      0.23599652468936
  C   3.19613075050245      3.45847360828877     -0.11923400616015
  C   4.27696818223543      3.57451818180176     -1.14783355606331
  N   5.65398387140188      3.33717889663509     -0.66751355733375
  C   5.64834098872309      2.28530247119887      0.36064458815910
  C   7.04844835248894      1.97514619950427      0.69344144509027
  N   8.14492926989393      1.79179225586829      0.97404685034401
  C   4.84185122310102      1.05954694210317     -0.01889347948582
  C   5.44017894794061     -0.15092060572140     -0.28579939516152
  N   4.79869112949663     -1.31375989274639     -0.46052446608870
  C   3.46960768403925     -1.26572404204359     -0.28083998553441
  N   2.50227594546282      4.63227526155022      0.20592524989691
  C   1.57888935485077      4.84284258796008      1.20031534540610
  N   1.05205229129488      4.01658941631296      2.01295830304295
  H   4.26686043476688      4.55448881956719     -1.63232478278715
  H   4.08576579929213      2.82313899610780     -1.92183626315854
  H   6.00523825600886      4.18591099656854     -0.23525749933912
  H   5.19815434972924      2.66176991330460      1.29197679128172
  H   6.52409002696413     -0.19994880453665     -0.34561366952731
  H   2.93191822550356     -2.20440474641282     -0.36570780037346
  H   2.80616031800924      5.46079575060131     -0.27625060804768
  H   1.30005476994574      5.89749074514677      1.25937223903155
  H   1.37539017508622      3.07106850336800      1.80602530583162
