23
Coordinates from ORCA-job 13083optt
  Br  1.19785321122825     -0.39601314259429     -0.55893419460944
  C   3.06049159621971     -0.07975980350879     -0.41878143202904
  C   3.61578854799753      1.08097977911137     -0.05342070276431
  N   5.02854876109769      1.08691736160293     -0.02447303226716
  C   5.67609722668213      2.23809684059135     -0.36689370153344
  C   5.02255855049037      3.40392357363870     -0.44475653813288
  N   3.65169483336187      3.47513533609813     -0.09605942989542
  C   3.06920361881385      4.77235575765466      0.05038280886617
  C   3.19946455197437      5.36067632821847      1.40324551044294
  N   3.29137393533608      5.83775276186141      2.44106382752242
  C   2.94188370544652      2.34958543939569      0.31825444648174
  N   1.82774415091912      2.35999406123061      0.93876394600933
  C   5.74427632254674     -0.12191824144011      0.28884201066107
  N   6.95277444760551     -0.09804659381410      0.80878471002028
  C   5.08189115809817     -1.33146383577488     -0.04669636369458
  O   5.41177349670441     -2.48707626076001      0.10443695763408
  O   3.78822924589271     -1.14350359262628     -0.73622076135935
  H   6.72987673318027      2.15329999358628     -0.58806620344587
  H   5.48455181292817      4.32069660135149     -0.77118440382643
  H   2.00736532926982      4.74026342271159     -0.20187347932594
  H   3.55079022523170      5.45533049638484     -0.65057005531795
  H   1.51189703838019      3.29439185446972      1.18305561859390
  H   7.17787150059474      0.84638186261121      1.11410046196987
