25
Coordinates from ORCA-job 13086opt
  Br  -0.19488102351255     -0.52915777633836      6.69765194779800
  C   1.06481368466362      0.15558190258546      5.42841887222372
  C   2.21283558122161      0.78981746684995      5.89276594828333
  N   2.43722088623835      1.54116092654573      6.95613688854564
  C   1.51280273387913      2.29002377131353      7.54582139819463
  C   0.25121101156276      2.82178081579450      7.03519394733810
  N   -0.56949958797467      3.50587539941217      7.76854702217758
  C   -0.07551268994442      2.55244761701151      5.61814224897917
  C   -1.24093699850447      1.99350692764456      5.28100761606652
  N   -1.42146462106394      1.23652818340960      4.12045391057586
  C   -0.43090106119897      0.52059366083158      3.47784217533293
  C   0.74006909575287      0.07824159400307      4.02642524885481
  C   1.82737499806241     -0.24367651934870      3.11448363369587
  C   3.11720379397642     -0.21973937778353      3.45211222816663
  S   3.72334978735943      0.36877281356821      4.99769503947700
  O   4.50140635309471      1.54966198675434      4.69451416263372
  O   4.41190425131236     -0.71123241711281      5.67089016434960
  H   1.79130476696630      2.68022469187014      8.52303099265749
  H   -0.22126026629041      3.52665681056203      8.72858750446237
  H   0.73571264337902      2.57817216355411      4.90396826233926
  H   -2.06444247343971      1.96952449710689      5.98480338851276
  H   -2.36198735254646      1.12224843489053      3.78408089361029
  H   -0.61905834513027      0.33389269902381      2.42506485581970
  H   1.55937640129556     -0.47177222233510      2.08535736035654
  H   3.92235843084120     -0.44513404981333      2.76500428954798
