29
Coordinates from ORCA-job 13088optt
  Br  0.91640889226356      0.12350285134952      0.03282335478339
  C   2.82724958024355      0.01314989468558     -0.01282648680456
  C   3.52698959744394      1.15912899920230      0.25937971246804
  N   3.01793161905425      2.42002039889280      0.64146650112965
  C   4.08860929690913      3.39226602677296      0.41517489732094
  C   3.91781123579591      4.57649337026588      1.34626149016134
  N   4.93547160560207      5.59368294976900      1.10458148123736
  C   4.67623769648197      6.78787918714371      1.87913812723203
  C   5.64453619310507      7.84932397528093      1.58428108435725
  N   6.37645783367753      8.69675908162086      1.34301901366126
  C   5.37695662841391      2.57419457968343      0.62149564753619
  C   4.92674246108839      1.19622123884504      0.22087224129820
  C   5.61935374322404      0.01475225950722     -0.07260289120683
  C   4.92710815891940     -1.14039786800991     -0.34765196179264
  C   3.49642182748338     -1.20843414401682     -0.34431698945906
  C   2.85332757740101     -2.43817860754899     -0.66214244613013
  O   3.44763725567809     -3.50152401471775     -0.95884681794886
  H   2.12642002201430      2.64793303439730      0.22067246727476
  H   4.07053684071592      3.75341452756904     -0.62690417336116
  H   4.01002512992753      4.22578904775122      2.37758617959398
  H   2.90022255782753      4.98509030335780      1.23203240005631
  H   4.97533895374685      5.81835900581059      0.11605114163984
  H   4.75768306026189      6.54352736440039      2.94123748869826
  H   3.67029827681378      7.20834860043440      1.72488616756124
  H   5.67561080990614      2.62923515970107      1.67914894314213
  H   6.20625742237111      2.97213897833493      0.03374191189183
  H   6.70470968700328      0.00947822259222     -0.09396828616760
  H   5.44355516626012     -2.05916074636542     -0.59380419763919
  H   1.75209087036623     -2.42599367670941     -0.63878600053398
