23
Coordinates from ORCA-job 13087optt
  Br  1.00973615150061     -0.61465968068812     -2.16147772000430
  C   2.37589190909419      0.21733117018640     -1.14854538056343
  C   3.06926746610751      1.25157727351344     -1.67760629552539
  N   2.53558707317030      2.12886759342698     -2.61650698932237
  C   1.37653866120679      2.75766185217008     -1.99992030871176
  C   1.42454870495317      3.06232136462658     -0.66814921446936
  N   0.35076557803273      3.17633193040765      0.13758069683837
  C   0.46960075937224      3.02508816824776      1.46646597872753
  C   1.42346041373710      2.40755652676591      2.36554202780745
  N   2.47744397775700      1.63689506446875      2.24714334149382
  C   2.86036042245561      1.16712891178948      1.00669476086463
  C   2.22602242099871      0.21148450821042      0.28414779231281
  C   4.07826675855449      1.75779135964065      0.42552814909714
  N   5.04937345879488      2.29678117642475      1.02385588302680
  O   4.12266367772914      1.73675883897249     -0.95573730531870
  C   -0.67952606985951      3.50262827856081      2.20104247019473
  N   -1.58618912540738      3.87543203916759      2.80707371326039
  H   3.21774480610665      2.74024537836548     -3.04397656631572
  H   0.43144299922685      2.64803373744147     -2.51682136443738
  H   2.40754485661275      3.20785410379040     -0.22623445770361
  H   1.17382103777913      2.63015955606705      3.40216080975079
  H   1.41067420940709     -0.34854630097267      0.72186389225677
  H   4.86095985266989      2.24227714941662      2.02387608674080
