24
Coordinates from ORCA-job 13096optt
  Br  2.45791408146714     -1.25103209039155     -2.75965852574094
  C   2.72871507448572     -0.26264691377302     -1.15607528309677
  C   3.06093752120085      1.05834934229777     -1.19790685637253
  N   2.83555773609672      1.90010003093893     -2.36649295879053
  C   1.51633876254231      2.39779995711399     -2.04601067271425
  C   1.34734906547826      3.29509902779947     -1.06657695867507
  N   0.18431603581212      3.28023639305582     -0.28772672639362
  C   0.32598642768775      3.21886938041502      0.97173900753495
  C   1.58451368074055      3.31153557438195      1.82456406627765
  N   1.83839243634888      4.38968073144448      2.46572173186688
  N   2.32365774574771      2.17983955207474      2.06061493183351
  C   2.61543112474696      1.23445131952945      1.00911206845429
  N   3.26788726083436      1.75272610918145     -0.03411721443487
  N   2.18852004639295      0.01317267810907      1.16675689782244
  C   2.43762583911252     -0.84296376179935      0.10819692442359
  C   2.25616923147790     -2.22535371780979      0.30585325533466
  C   2.09394924199982     -3.41009007145305      0.48266207170036
  H   3.49824224932947      2.66754551412245     -2.28993080264306
  H   0.69884953334123      1.76555713895751     -2.37212209521398
  H   2.19819624622327      3.85333205986562     -0.69009031704597
  H   -0.58092064594415      3.15852129468372      1.57415102566991
  H   1.13107097435746      5.09190542324226      2.26387539129348
  H   3.09320828139911      2.36623593285891      2.69151660970498
  H   1.95009204912102     -4.45087090484592      0.63594442920489
