28
Coordinates from ORCA-job 13094optt
  Br  1.02052576912599     -0.93249012104454      0.26833163047565
  C   2.86715443565786     -0.38490952703515      0.30200019531631
  C   3.71810017372273     -1.07755560908093     -0.48800958385634
  N   3.56604841513567     -2.23232799017380     -1.27323820426174
  C   4.86930052761855     -2.83205676341916     -1.29089400071320
  C   5.76531420838468     -1.92788552511006     -0.83110817767780
  N   7.14433078954830     -2.02509261581108     -0.74788473272381
  C   7.69876220795392     -3.33750788778506     -0.97420222120390
  C   7.88575941292734     -3.58113921951796     -2.47672159707349
  N   7.96129962769404     -4.99267257881836     -2.81583384146572
  C   9.07188458833439     -5.73142684288330     -2.62563297107530
  O   10.13274693207310     -5.30522072188314     -2.22508261846612
  N   5.09038201986476     -0.77076046187101     -0.45974713646960
  C   5.55155954931021      0.33512629888547      0.34302431800411
  N   6.81546087252594      0.70741785953401      0.32865532400996
  C   4.53580082993502      0.94368511752635      1.09572658319794
  N   3.21328006615513      0.62052888461691      1.10579192184996
  H   2.80107061457211     -2.81767734833092     -0.96425900072378
  H   5.04032884591570     -3.76733792590200     -1.79268260251598
  H   7.51442704906525     -1.50087995933264      0.03585176309140
  H   7.04387928606588     -4.11933059442958     -0.56444208142101
  H   8.66332983760815     -3.41268781173757     -0.47418281614659
  H   8.79926064567533     -3.09741648583314     -2.81968410896352
  H   7.04329090805826     -3.14667221224811     -3.01291937109321
  H   7.11924553189131     -5.47343043191478     -3.08452885963830
  H   8.92555735765514     -6.79301945230999     -2.88925641824463
  H   7.28095384786152      0.33283294144857     -0.49044766145384
  H   4.83994564966357      1.78590698446104      1.70337626924256
