24
Coordinates from ORCA-job 13090optt
  Br  1.38456276494978     -1.03879247875383     -2.02720008110940
  C   2.95471264721426     -0.24242645461628     -1.30749680790411
  C   3.33831545113386      1.00345564121457     -1.56979390345243
  N   2.55287331564597      2.10771154645032     -2.03335951661155
  C   1.68255421814462      2.37416140160637     -1.12422669907156
  C   1.47437059171447      3.77364647651937     -0.73516996491974
  N   1.49095433133506      4.14050562722869      0.48345464083997
  C   1.50141769400256      3.23778767679510      1.56919050046207
  C   2.46479884929990      2.47215631592375      2.09651960360456
  N   3.81159787410000      2.26629846669758      1.65939822309435
  C   3.96954204471427      1.26885167214393      0.66009655630575
  C   3.57370717402338     -0.08444211180806      0.92017635300571
  N   3.33639537537853     -0.68178269409979      2.02389161336461
  O   3.48906841656013     -0.89056782704222     -0.24154460679803
  C   4.34543658911248      1.59861001520377     -0.66031453712772
  C   5.02140682736809      2.78828057648796     -1.01309169702047
  O   5.55835683526157      3.57325961136896     -0.21412152106501
  H   1.41290043661461      1.63636961220914     -0.36550219219814
  H   1.48862910114016      4.54092178884157     -1.50676923294420
  H   0.57206220294072      3.27698766992617      2.13208739388776
  H   2.18067505523817      1.92229133435448      2.98810059261485
  H   4.26786572808765      3.11487866754601      1.32894282318941
  H   3.53645321538564     -0.02919301291548      2.78050842892784
  H   5.05834326063411      3.00403047871791     -2.09477596907452
