24
Coordinates from ORCA-job 13097optt
  Br  1.25775582196941      0.29007432268167     -1.35828527380145
  C   2.95002596361192      0.11366389131754     -0.48436271908669
  C   3.39802091825870     -1.19588960764635     -0.15168176575296
  N   2.62824049814523     -2.37025606846518     -0.35963786623515
  C   1.59913440934611     -2.63954734292142      0.63165650255950
  C   2.08683221634022     -3.06924379794167      1.96378282080406
  N   2.46437704715426     -3.44527106908561      2.97939341994857
  C   3.48945235059439     -3.49263166923636     -0.66281912396314
  C   4.66372571553567     -3.65672290625847      0.28991430779241
  N   5.19154130996756     -4.75061791749995      0.64012743248251
  O   5.21667389652611     -2.52163193323538      0.74725573981583
  C   4.68861746534360     -1.27782024733253      0.41860075254881
  C   5.46706710300258     -0.19027631967977      0.67880963417543
  C   4.96470476110583      1.12715172850146      0.38615191925719
  C   3.67906215347867      1.23352106315680     -0.23043530071010
  C   5.71533139021630      2.27576679321950      0.66448592216544
  N   6.34184921464945      3.22927982463713      0.89138046409005
  H   0.93046028309410     -3.42237616880665      0.26353363350709
  H   1.00943731046609     -1.73274386523291      0.75917034042361
  H   3.90275442872935     -3.33713585418380     -1.66356944753140
  H   2.91584910470592     -4.42166677151795     -0.66718445057622
  H   4.67026021598247     -5.52488777915977      0.23898512376053
  H   6.45137083279396     -0.33145676509016      1.10191709410821
  H   3.29745558898202      2.20571845977988     -0.50918915978213
