28
Coordinates from ORCA-job 13104opt
  Br  1.02606405372476      0.03841308906792     -0.28710783393524
  C   2.90901206886071      0.15599596065789     -0.03726557149815
  C   3.53160842692763      1.37983432791536     -0.16259608617456
  N   3.08230944225791      2.62753027793019     -0.51216490964081
  C   4.12315001145088      3.61608495852747     -0.13558559878038
  C   3.82302184690273      4.24630793206836      1.21979821145511
  N   4.83951799289309      5.19986642058186      1.56812944204649
  C   4.64424117132042      5.83295927306390      2.86952250188090
  C   5.29184654675389      7.21476842008135      2.84364723885441
  O   5.22360976777104      7.86639502502052      1.75079234521498
  C   5.84950292647999      7.66337751615152      4.03507544354354
  C   6.20177825331128      8.07277167697494      5.15275042008464
  C   5.42216247598562      2.78250490658941     -0.10535552651908
  C   4.91548309800742      1.37968612183823      0.07210251405289
  N   5.59873054764732      0.29668747532018      0.37003045414881
  C   4.88149715526883     -0.83010247461274      0.45043373296622
  N   3.57481243471763     -0.94192114329886      0.26501561289648
  H   2.12352903275047      2.85750635665121     -0.28953185725420
  H   4.17144994721537      4.39841523372310     -0.89325586668200
  H   3.80128872508599      3.44833037077247      1.97424288805347
  H   2.80518609531880      4.67844893311981      1.19270898029075
  H   4.87008252757408      5.97942339686574      0.90868078976212
  H   5.06064483644887      5.21547748428496      3.66799588597760
  H   3.56319929957807      5.95848838571836      3.07311089822122
  H   7.03157784799781      8.17623381732226      5.82599875661633
  H   6.07632271804445      3.11451645026098      0.69980226482036
  H   5.97469251810693      2.85203553626236     -1.04529839747827
  H   5.41767823159779     -1.73803572885895      0.69632326707629
