21
Coordinates from ORCA-job 13103optt
  Br  1.72627277500419     -1.49950049141707     -1.54413968780537
  C   2.66977228248011      0.26962306334801     -1.29715657024586
  C   2.03595756083468      1.15993031304354     -0.33416346284765
  N   0.98069859610574      0.69074706129342      0.38624967190775
  C   0.23469470532738      1.45992815060402      1.10935278463603
  C   0.08374129386939      2.92652854235463      1.06256335747745
  N   -0.25998844631969      3.56044698769772      2.11869534814379
  C   0.01691098256892      3.59239336027903     -0.27495984150463
  C   0.91835373167621      4.40576844798564     -0.82734138327161
  O   2.14529834674759      4.69573504442500     -0.34888955937473
  C   2.93731561437194      3.59203724157241      0.11736254164560
  C   2.70535911017223      2.33725661611231     -0.08121943089450
  N   6.03919193524067      2.41102360011151     -0.28548151397128
  N   6.43012967520765      1.75900940873879     -1.06113372357450
  O   3.62781479992391      0.46038244688189     -1.97051369227993
  C   0.60175509097192      5.10110243205383     -2.05359594620420
  N   0.33056233065981      5.68596947711907     -3.00383270015895
  H   -0.44931927447705      0.97752526064129      1.80327253427797
  H   -0.43608032717014      4.54084396220431      1.89641751807223
  H   -0.91126898258752      3.44405050476637     -0.81461264773112
  H   3.78282819939199      4.02319857018415      0.63812640370352
