20
Coordinates from ORCA-job 13108optt
  Br  0.96359478963286     -0.22017601905653      0.16427169110168
  C   2.82488796552495     -0.19981966088794     -0.07928022829100
  C   3.59323620796414     -1.36462231604267     -0.05254578675828
  N   2.98267738821106     -2.59334606839294      0.05366564794728
  C   3.68876941449226     -3.66584024169495     -0.00005874567440
  C   5.13014355402663     -3.72533899936814     -0.22955999643524
  N   5.77446361202842     -4.81011404336562     -0.52684643706855
  C   5.78932383025296     -2.44147406277989     -0.14762128433845
  C   7.23869118512781     -2.36499181292814     -0.10482224542482
  O   7.93832644438363     -1.45657687119693     -0.50218766503812
  C   7.95231395385649     -3.47652841672190      0.59316110163783
  N   8.61639774593745     -4.17592322346383      1.21470183400691
  C   4.99829612617245     -1.29668376351724     -0.08650377178288
  O   5.66647907768934     -0.11134190098398      0.11155202503970
  C   5.17727297217021      1.12558349973065     -0.10573690147851
  N   5.91183519755408      2.14662123210078     -0.05146476362368
  S   3.47679130686572      1.34940461646104     -0.51898472815967
  H   3.16546060764102     -4.61623476525117      0.10272700292759
  H   5.14294459005846     -5.60888935884401     -0.48787690730754
  H   6.87709403040999      1.86129217620343      0.11441015872016
