23
Coordinates from ORCA-job 13111optt
  Br  4.17304982954120      0.50673058522646      1.79006233136335
  C   3.61790709029284      1.03251351625635      0.05786790116250
  C   2.52209815085578      1.77880806172131     -0.15261266047167
  N   1.75111289464192      2.25592574954350      0.90888516126332
  C   0.49972200049305      2.33816273129232      0.72189465972798
  C   -0.33634566094109      3.19838613251216      1.59747329640938
  N   -0.28949775510111      3.20509035059114      2.87106013681988
  C   -1.27114661590833      4.08543285099255      0.89140877325796
  C   -1.31046264268953      4.47783320931375     -0.39676139837930
  O   -0.52867337127775      4.24218206630581     -1.45498437490063
  C   0.88017360372376      3.95532743607593     -1.32967592102214
  N   1.64247714688530      4.77781463670126     -0.72284494865426
  N   1.17884885482693      2.83769961622755     -1.98631749679215
  C   2.18327788476876      2.04570728291670     -1.56744226354038
  C   2.85365439794573      1.19507552974068     -2.46026521566668
  N   3.86944385997809      0.39923674084619     -2.22546849617116
  O   4.39899180302659      0.51349599268076     -0.89390620124509
  H   0.00313163048340      1.92868389635881     -0.15923853617783
  H   0.41708463945944      2.53295762948339      3.17620979413067
  H   -2.04637257820934      4.50523985841443      1.52013163904834
  H   -2.14830834253575      5.10473224437462     -0.68981947751750
  H   1.11233835464097      5.53712413512089     -0.30521613688866
  H   2.51249482509913      1.15483974730339     -3.48944056575594
