24
Coordinates from ORCA-job 13116optt
  Br  1.08986904455513     -0.90041324491843      1.29528057448682
  C   2.68277222963845     -1.00768603559752      0.26632237159055
  C   3.69072474171459     -1.97859645216451      0.58098917636580
  N   3.26305932073062     -3.21147203880348      1.11783467275118
  C   2.14639207630036     -3.78463275518251      0.45783847937409
  C   1.84835206851344     -3.38547923578185     -0.78747588656148
  N   0.54681808819761     -3.37231917128721     -1.27513355255069
  C   0.02359857527377     -2.31318643418613     -1.74093422405931
  C   0.41673139167492     -0.80766342367080     -1.89454142649001
  O   -0.56109329134191     -0.14398255354709     -2.21527495760672
  N   1.66571033679071     -0.29329754754494     -1.87253905705976
  C   2.66813060298951     -0.54219844246041     -1.06225695298152
  N   3.93195004801004     -0.34255407659123     -1.58699866409734
  C   5.08859177631134     -0.82141606667983     -0.97895670048846
  C   4.96090808126686     -1.78878319932290      0.01743533049565
  C   6.04230768442609     -2.65113500518052      0.35688031515828
  C   6.93978860297645     -3.39467677939329      0.66162604935980
  H   3.99932524334271     -3.82389129381272      1.43903329432826
  H   1.41667467449637     -4.30364099110134      1.07066110926865
  H   2.60469269658100     -2.90566498379088     -1.39666146246251
  H   -1.00225478698135     -2.40134392773322     -2.09875434384776
  H   3.94458865603941     -0.08983658795551     -2.56395215338133
  H   6.03091170396887     -0.53468481933529     -1.41685351652933
  H   7.73945043452492     -4.04144493395833      0.92743152493714
