29
Coordinates from ORCA-job 13110optt
  Br  1.90619480298385     -1.79882999396142     -0.38306827420553
  C   2.91057988059569     -0.16085369828614     -0.57830972880582
  C   2.39843339801065      1.02893574598521     -0.09475752523024
  N   1.49460417562353      1.07725844596421      0.98292842686062
  C   0.23861300804887      1.82507739317862      0.94084513464966
  C   0.40613503156042      3.25269320394060      1.48377699486053
  N   -0.47475830188013      4.22590258667924      0.82905087512062
  C   0.20516678285609      5.05906375305640     -0.16216078267596
  C   0.52727193127067      4.30359639436142     -1.43973951168200
  O   1.32101534049326      3.15107789028309     -1.20951187628386
  C   2.63067211018525      3.34542745196229     -0.90282545333615
  N   3.17729165784642      4.47630969295264     -1.06251012240072
  N   3.18567707296267      2.16121746264158     -0.44020737517674
  C   4.64699024047538      1.97757957323925     -0.55147780436426
  O   5.35819957904648      2.94556598943662     -0.28945662589500
  N   5.07231658421588      0.78630856317073     -0.96421948807047
  C   4.19473951319440     -0.23006425251744     -1.08835884526269
  H   1.33835269321019      0.13710389891266      1.31363439238052
  H   -0.47425484920807      1.28277638047161      1.56596588668329
  H   -0.17877734829441      1.86738933559200     -0.06486574480075
  H   1.45742673586851      3.54069899213473      1.37854009636451
  H   0.19612642777143      3.25047473155653      2.55614078609202
  H   -0.88719946156175      4.82914081196230      1.52569634264346
  H   1.13632288132386      5.48733149974112      0.22708443321938
  H   -0.46073702074600      5.88251667057609     -0.43429877771427
  H   -0.39322455677120      3.91778956650448     -1.87974471798586
  H   1.03457515452936      4.96717402127410     -2.14151381465701
  H   4.14822528551139      4.40578302824533     -0.76279916757251
  H   4.54602125087717     -1.13644513905808     -1.56783773275476
