24
Coordinates from ORCA-job 13112opt
  Br  1.04244480474989     -0.02606433939191     -0.12854542929483
  C   2.85834717262361     -0.25355494134403      0.39826836152795
  C   3.52796764771330     -1.49266821747589      0.23031208404921
  N   2.69552715036291     -2.63300415446285      0.19595066366013
  C   1.75912099779208     -2.78944268506141      1.29174991774992
  C   2.18761216150013     -3.74839237705140      2.33696212041248
  N   2.49396518513412     -4.52542225738730      3.12343482727962
  C   3.19604060043779     -3.86738060033920     -0.34865810200410
  C   4.47896956952816     -4.34702490787615      0.31585695751989
  O   5.61224202220701     -3.85053215140354     -0.35364547695122
  C   5.88723329503894     -2.51718233096185     -0.40567971070690
  O   6.93966913518454     -2.22273394839192     -0.90180514699688
  C   4.93826301737560     -1.47184245001937      0.11285978376380
  N   5.63879722357138     -0.33155695500870      0.29739287967502
  N   4.93667980013917      0.73261535000817      0.76568018972168
  C   3.57016541874525      0.95103961298900      0.65383364783741
  O   3.12355334776973      2.08713133322715      0.79229030892462
  H   0.79213184090437     -3.13981398031851      0.91987017064722
  H   1.59607384495582     -1.82767798362091      1.77135786587346
  H   3.39607501790488     -3.73964656891113     -1.41643277951484
  H   2.41194720729229     -4.62023118672048     -0.24314859743750
  H   4.56606113319895     -5.43140112909508      0.25251921626589
  H   4.50090621824771     -4.06046830340789      1.36924015692381
  H   5.48420618762208      1.57325517202537      0.86233609107412
