22
Coordinates from ORCA-job 13120optt
  Br  1.10153913417520      0.15968155050329     -0.47419522973874
  C   2.86379372414025     -0.07358748820582      0.18172222255014
  C   3.59694164301812     -1.26170730335215     -0.00792387521584
  N   3.17235242052007     -2.51970337894369     -0.15222598979400
  C   4.31426664086753     -3.26037071670836     -0.20499249244246
  C   4.26513458903928     -4.66664055485597     -0.39409180253030
  N   4.24778280436802     -5.80996773489887     -0.54174853256258
  C   5.48106088285535     -2.47124975512550     -0.08015794565011
  N   6.81810266746179     -2.90577125430272     -0.08800129373956
  C   7.88415827730191     -2.15689176298387     -0.51323605790343
  C   9.02502082589719     -2.90001768864053     -0.34894497795292
  C   8.63610376914361     -4.15095807281429      0.19980771551731
  C   7.27379816596213     -4.12162676872988      0.35128834179060
  C   5.01771188834587     -1.16678431367771      0.03818052352007
  N   5.68462213563156      0.04698741291543      0.14576868246838
  C   4.94010317950775      1.07062986815423      0.19020100739741
  O   3.58376810588763      1.11173946460176      0.17390416760859
  H   7.72513192098799     -1.15801221851090     -0.87990690654716
  H   10.02375752627450     -2.57992241656459     -0.59658123621984
  H   9.27650325961108     -4.97853925744095      0.45678670209854
  H   6.58754208837488     -4.85843429055427      0.73083006264720
  H   5.34480435062807      2.07314668013543      0.25051691469871
