30
Coordinates from ORCA-job 13124optt
  Br  0.74069218003393     -0.95392328921387      1.05045251387558
  C   2.46487059897974     -0.32940136045416      0.53032189255276
  C   2.72635835533988      1.01803771261481      0.54369986140489
  N   1.78388925693459      1.95219187443632      1.02510760431593
  C   0.73386317862535      2.36122414657866      0.07574910039610
  C   1.19601388247547      3.52504433047635     -0.83115070681562
  N   2.51725201796366      3.25227650980592     -1.29978930914179
  C   3.49074083613573      3.68598620033430     -0.49167614441945
  N   4.41593597155887      2.69561732447569      0.04317709468019
  C   4.06480089789907      1.38539041305304      0.15164797986806
  N   5.01021346156426      0.46956904335036     -0.09304364700601
  C   4.70505493473943     -0.82713196672355     -0.06043474914515
  C   5.83585791914858     -1.78040322786644     -0.36782625958969
  C   7.06204558282525     -1.46439252789323      0.47154651694381
  C   8.27694930749070     -2.27693395489103      0.15945663887119
  O   8.35267662315300     -3.13876530224666     -0.67604116463234
  C   3.43270677133443     -1.28996432095957      0.20956173504822
  H   2.28152941705030      2.78219939992109      1.32733745231067
  H   -0.16712332130206      2.62767627996030      0.64111791271029
  H   0.49635727416843      1.49625597256284     -0.54319972677206
  H   0.47874546527789      3.61702168257525     -1.65618836669308
  H   1.13385651822449      4.46173846576370     -0.23896179929728
  H   3.30377210788946      4.50392769967498      0.22165403955973
  H   5.39706097130703      2.80062271933261     -0.17273970310408
  H   6.10578517103463     -1.69594243195512     -1.42359524917587
  H   5.51854926629566     -2.81091057386993     -0.20244955069154
  H   6.85635832747616     -1.58399968366820      1.54263183724164
  H   7.32696258724082     -0.40747677434516      0.35514884660507
  H   9.16940116961860     -2.03045618858515      0.77314382400983
  H   3.19382326951648     -2.34307817224420      0.20334152608998
