27
Coordinates from ORCA-job 13127optt
  Br  1.78126741587841     -1.72574184212883     -1.59333451121801
  C   3.37430703019451     -1.59621533396750     -0.51584963027855
  C   3.31014683488719     -1.97791124880383      0.83263336160986
  N   4.40909685168163     -1.51689077510086      1.61626489845628
  C   5.64640510892325     -1.74405583111288      1.02890699470040
  C   5.74223357774115     -1.72605465598246     -0.31536271856158
  N   6.46826605895078     -2.86544853038784     -0.76323822501794
  C   5.86846570310805     -3.54233034602347     -1.65278836485114
  N   5.93903539128833     -4.96886563122403     -1.69591566660055
  C   5.01456693391933     -5.50640056426707     -0.64685161980822
  C   5.53259966562565     -5.35471969255437      0.80479573659096
  O   4.75005463551676     -4.38558682081910      1.45962340372285
  C   3.44134312503599     -4.41427736700298      0.92151919799027
  C   3.61927636698736     -4.82939106683304     -0.56251464295052
  O   2.76286452279082     -3.22067115598283      1.23179046738944
  C   4.57693321459878     -1.22573052549840     -1.14212859879504
  O   4.74731263206912     -0.76253637375442     -2.28388987364191
  H   4.35089604077455     -1.78442252197652      2.58608593152667
  H   6.42561815829309     -2.18505874541028      1.64086701232347
  H   5.08072129739712     -3.12955331669787     -2.27815444140605
  H   6.87698062262735     -5.26197842076516     -1.43760690037502
  H   4.90128407906921     -6.56689992765511     -0.87438874487684
  H   6.56942058219652     -5.01970801994908      0.83296935032439
  H   5.44371635262831     -6.31720672044783      1.32894577450249
  H   2.85760832424784     -5.17847028529115      1.45152191212490
  H   3.53200722321310     -3.95950051999220     -1.20273506697982
  H   2.82757225035563     -5.52037376037078     -0.84616503590080
