27
Coordinates from ORCA-job 13133optt
  Br  1.26527994256013     -0.18144764310777     -0.92045938205797
  C   3.10948614631776     -0.07333132989731     -0.41576201543332
  C   3.76033319740570     -1.19208544278853      0.08065065120455
  N   3.06445354619157     -2.35924158222315      0.51861500874203
  C   3.24052384230427     -3.58769644931964     -0.25697204963644
  C   4.63683312784265     -4.20921678889038     -0.17008400171296
  N   5.67980368097036     -3.23950108929780     -0.50859453686051
  C   5.93498737031331     -2.28399671743206      0.52332022108933
  N   6.64908934042602     -2.69556367459898      1.50477384315070
  C   6.75547961629015     -1.86961990516999      2.68453338040332
  C   6.64881125925417     -2.68807144001375      3.90103592691163
  C   6.55547251496614     -3.34029502793223      4.90336085218151
  C   5.19076849215991     -1.03422352211325      0.34913256401257
  C   5.68212320953173      0.26799002642965      0.22843418368940
  Br  7.57845962653077      0.56976765293630      0.55902580929993
  N   5.04391310403707      1.32170118663771     -0.16771468552478
  C   3.73834192499492      1.14431599560915     -0.56536240131776
  H   3.29269784564550     -2.54316597675186      1.49324555286586
  H   3.01323903732298     -3.34002230803979     -1.29850081175647
  H   2.49006629832044     -4.31360045822126      0.07233176272889
  H   4.70222197549120     -5.07373815866743     -0.83853517583298
  H   4.84508934381645     -4.55948438994024      0.84303043479740
  H   5.39345570101370     -2.73588348905602     -1.34096487598512
  H   5.99393673207723     -1.07846891905786      2.72591904333609
  H   7.72389331859699     -1.36100001365834      2.70382853920716
  H   6.47706254227939     -3.92694653730407      5.78573446316812
  H   3.23717726333921      1.99182600186903     -1.00902230067028
