22
Coordinates from ORCA-job 13132optt
  Br  0.98336874029109     -0.24393327043532      0.33965682278607
  C   2.85928856145939     -0.14643362447635      0.14885635142936
  C   3.57317046858778     -1.35756690792657      0.32450512985074
  N   3.06918262450939     -2.57738804740275      0.63381206086931
  C   4.12465622009495     -3.38880161835493      0.73982214879421
  C   5.34407246235483     -2.72368870038378      0.49193004738555
  N   6.64733391247942     -3.26637475895556      0.53597615021400
  C   7.10747275275532     -4.20688528793510     -0.34950026677021
  N   6.49129155232731     -4.73202835297054     -1.33272166540579
  C   8.47358428271506     -4.62566525828953     -0.07027378542737
  C   9.59770168692222     -4.94446909599066      0.19280732432705
  C   4.98847632384003     -1.40767751979652      0.21389994180905
  S   5.93633299806569     -0.02031988815274     -0.17252624625666
  N   4.84835611160369      1.20103844401717     -0.29572737827450
  C   3.52054333498350      1.04392687898264     -0.13665241941707
  C   2.86446527252798      2.37486527075274     -0.30641893364454
  O   1.69613500732797      2.65320183529885     -0.23694005326477
  H   4.01030161767257     -4.43692317110509      0.98514884457650
  H   7.28579125385058     -2.96156196537580      1.25205402946296
  H   5.55186492754784     -4.33495098802402     -1.39272571098930
  H   10.59551864666903     -5.23959937049807      0.41011992709934
  H   3.62609124141423      3.15023539702196     -0.51410231915392
