24
Coordinates from ORCA-job 13130optt
  Br  1.08796194703703     -2.10906550752919      0.70136486134437
  C   2.49221804214546     -0.98054449908745      0.19131409953076
  C   2.39295554273878      0.40318135255678      0.16874494234821
  N   1.22796994546529      0.94989875337625      0.53908857021634
  C   0.87713864091038      2.21863123141904      0.60591218725727
  C   1.46790185595057      3.47209797858296      0.27205098799051
  N   0.74073144613990      4.53430333114964      0.55053449261571
  C   2.81456815032504      3.57514087442029     -0.37758622038029
  N   3.26493305017537      4.67165731779990     -0.88174923337385
  C   3.73467870939851      2.45186013896405     -0.45459706548874
  C   3.60416518485603      1.12016473198787     -0.25315776361075
  N   4.77917595277378      0.37322551397866     -0.50541540958906
  C   4.76193952695073     -0.90226891454149     -0.43272891228802
  C   6.06948531390811     -1.61939747539529     -0.71560802245611
  C   5.98036406236588     -3.07553979493485     -0.71286149409043
  N   5.88556945050212     -4.21799435901373     -0.70338052685705
  N   3.67981642089119     -1.64093072662900     -0.11802846728295
  H   -0.12427928053172      2.36463063555935      1.00726901570259
  H   1.23987596128458      5.38963182648301      0.32204863766521
  H   2.56714999085585      5.40941986854233     -0.81696236843273
  H   4.71535429790393      2.75420233768591     -0.80087451227121
  H   6.80074407931330     -1.30955743463727      0.03239182590732
  H   6.44014466525811     -1.28492723114406     -1.68480311091596
  H   3.71243704338161     -2.64781994959371     -0.09096651354112
