29
Coordinates from ORCA-job 13134optt
  Br  1.13588286514015     -0.91200000366241     -1.76385313068595
  C   2.14787532683966      0.08670122989596     -0.48830773586577
  C   2.82673320929863      1.20863629719570     -0.87337970195184
  N   2.79750371404535      1.73387332584461     -2.19598065283588
  C   1.57568739579376      2.44244194566787     -2.58442590750255
  C   1.03520477943503      3.49398852273325     -1.60223787840675
  N   0.24485975088864      2.90733905931238     -0.53056937964485
  C   0.64416990221523      2.97892792569162      0.77874029074397
  N   1.42560830773782      3.86094319934693      1.24894362568617
  C   1.94294516891784      3.55896748854296      2.57102425225101
  C   3.29835199938570      2.81376207638704      2.46554315938664
  C   3.15018027316716      1.68952491484649      1.47105332985142
  C   3.51428763568656      1.93558208574547      0.13754464917909
  N   2.45765584415062      0.64725564679977      1.86514362226964
  C   2.06797993334459     -0.26856176528254      0.89767754978963
  C   1.49898353045041     -1.47711027160841      1.33590837543166
  N   1.02777753169797     -2.46998413810465      1.71190483359175
  H   3.58134061560021      2.36829467682375     -2.28881878773721
  H   0.79308354845453      1.70505120617473     -2.78416897450703
  H   1.78956247047377      2.93500565414323     -3.53624183127674
  H   0.42586857628884      4.21052628245357     -2.16323355800155
  H   1.85215446673594      4.04563272371431     -1.13314636114934
  H   -0.17881391141903      2.02056427857802     -0.76154330658602
  H   0.24416676302821      2.16234482642147      1.38989010196346
  H   2.08094142738312      4.48703331030606      3.13080205753486
  H   1.25846555175658      2.91331619548175      3.13597963283396
  H   4.07349099909415      3.50772475886949      2.13376555830538
  H   3.56319089047646      2.42938822223013      3.45228147509957
  H   4.00586143393206      2.86383032545142     -0.12329530776672
