27
Coordinates from ORCA-job 13143optt
  Br  1.03973608652713     -0.03104692989758     -2.16585098799556
  C   2.73888580033202     -0.14550653704048     -1.34422987318422
  C   3.30501276728309      0.92952082833756     -0.77575348871332
  N   2.73968145919112      2.19857042522499     -0.59360665484901
  C   1.57219677099706      2.26352318147596      0.29358093937739
  C   1.93703312750002      2.35841647024727      1.80460686012977
  N   3.07908417641063      1.53453661531062      2.09573320107420
  C   2.87317416470493      0.30232385453449      2.32501662152922
  N   3.87117657145530     -0.62219098479515      2.43162332665854
  C   5.14165265338906     -0.39114295687081      1.68709855135465
  C   4.95133447727996     -0.44409327887610      0.19826995023355
  O   4.58124054670049      0.84461626565971     -0.32977191850359
  N   4.39318025442282     -1.54383496894511     -0.31604748858584
  C   3.41559766404914     -1.46736389044741     -1.25259625556182
  N   2.98126891790241     -2.45069798026537     -1.98181514949442
  C   0.69472587714377      3.38285853228776     -0.06714630481094
  C   -0.01254117790846      4.32197310386648     -0.30221104264898
  H   3.46927704720808      2.81796142408188     -0.26003324781639
  H   1.01485650232172      1.33917215867436      0.14194694657088
  H   1.03648479224127      2.08686648198389      2.37560553369594
  H   2.17611794339645      3.39769128408904      2.04160801191519
  H   1.86244587379515     -0.11149690912802      2.45475848896427
  H   3.53341358412629     -1.56241192375408      2.27732056396120
  H   5.82133045280345     -1.18415413591754      1.99614214683747
  H   5.53720136678370      0.57326699510241      1.99539926593735
  H   3.55240428132756     -3.26286217119070     -1.75148335649337
  H   -0.64097198138420      5.14550504625191     -0.53916463958218
