29
Coordinates from ORCA-job 13148optt
  Br  2.13707950656354     -1.18411864677701      1.68676433843853
  C   2.77431801591276      0.09988426904593      0.37534236379807
  C   3.19556276286694      1.32653783758976      0.82814362748157
  N   2.91885649423903      1.80100201411980      2.14072072114547
  C   1.57446394158140      2.37524368945813      2.26095770179569
  C   1.24870270940924      3.60601163065257      1.39580571210120
  N   1.01269068858597      3.29407418813559     -0.00978577978599
  C   1.36901548256835      4.18619336632490     -0.99565398522978
  N   1.46879021881811      5.45510419150199     -0.87041650389801
  C   1.70350575824096      3.57663323374822     -2.35065857641031
  N   3.07096181692450      3.02305806758998     -2.43660606030648
  C   3.27269343972232      1.95790720009683     -1.50470227775095
  C   2.81522239243187      0.70252564291608     -1.79986787003665
  N   2.66664419129653     -0.29596422638102     -0.88557758314831
  C   3.72009976404158      2.23580592310072     -0.16582680561945
  C   4.34075150147430      3.42763136605396      0.19552311925737
  C   4.83541496725465      4.48752435804168      0.54285146714417
  H   3.60432551595822      2.50791623072842      2.38763229685845
  H   1.43741436374936      2.67176199876982      3.30444006446286
  H   0.85343748191463      1.57772030722585      2.06057912019357
  H   2.08509509283093      4.31131671274920      1.46633182055393
  H   0.36334274923763      4.09379208912751      1.82063120173370
  H   1.17452277367492      2.32592795022097     -0.25200179401227
  H   1.28669908064500      5.74898248511362      0.08782975794667
  H   1.00570928252397      2.77238337205615     -2.59037632254749
  H   1.60214716634729      4.36718465577819     -3.09219245243522
  H   3.71959510481253      3.77739096314955     -2.22783246194288
  H   2.51029927148400      0.47868526553651     -2.81758788614603
  H   5.41363846488937      5.33888386432597      0.80653304635857
