21
Coordinates from ORCA-job 13153optt
  Br  1.26114918185951     -0.27176852962514      1.32459284896307
  C   3.07907425440010     -0.08940503736968      0.80107588115890
  C   3.76185863607250     -1.12027139435568      0.28865683478143
  N   3.22502952996961     -2.39395484772501     -0.01267949363650
  C   2.07076642542560     -2.52714300469887     -0.87194650374833
  C   0.90157848755046     -3.15945984049033     -0.23073781984551
  N   -0.00383693193450     -3.70154309511943      0.21550372468543
  C   4.01795832202570     -3.51691000501413      0.21842399784299
  N   3.64785527751402     -4.73498201894999      0.11130062388747
  C   5.42078380704844     -3.19132654770981      0.46058869469703
  N   5.93689634474068     -2.03119752408374      0.24647516475878
  N   5.14074949998390     -0.98933942274273      0.04255530768500
  C   5.76523740270468      0.20449138781034     -0.52754296367792
  O   6.76494433989051      0.05717883196210     -1.21809094251730
  C   5.14627920387671      1.46439760526743     -0.23010553771655
  O   5.50307138842228      2.56491654089106     -0.63986090794546
  S   3.75494706488252      1.49612248964051      0.98153359497444
  H   2.32994450851126     -3.14654850943706     -1.73742608218373
  H   1.77565937485192     -1.54060241929882     -1.22328514701015
  H   2.65368003842172     -4.83893786723647     -0.07460440175484
  H   6.09437384378233     -4.01471679171451      0.64857312660175
