23
Coordinates from ORCA-job 13156optt
  Br  1.19255292287481     -1.29410262219985      1.43962487729492
  C   2.75038675441663     -0.40191955502910      0.84356888705205
  C   2.62286474010424      0.85127280921760      0.11834237392309
  N   1.49709532253145      1.16415011435906     -0.42803405868145
  C   1.26580158270301      2.24791578524331     -1.24049834018427
  C   1.14432259807706      3.55129907549314     -0.92879477310386
  N   1.20935282979824      4.12183977315154      0.32794560324953
  C   2.28865989028895      4.15756480851610      1.01774769337698
  N   3.57201418724570      3.90097398746716      0.68244077675254
  C   4.20047195295558      2.89768080829084      0.17005178108059
  O   5.54774950367451      3.12974967383190     -0.15467935687039
  C   6.02587064420398      4.38610793317632     -0.19807790051287
  N   7.24007641727920      4.64565003318927     -0.42365271257823
  C   3.90077763878406      1.53623574011830      0.04311583524610
  O   5.03852115266579      0.71940822068495     -0.01262270601299
  C   4.97448957327349     -0.49578420235028      0.52001299398860
  N   3.90880150591086     -1.04650854602643      0.99217294156129
  H   0.92970633902134      1.96893690984894     -2.23759157317242
  H   0.74365074748816      4.20133632949704     -1.70138542588590
  H   2.19766003002283      4.62949201881638      1.99733515115662
  H   5.28811234556895      5.16334991135740     -0.03679947527971
  H   7.76199185475587      3.77529373542399     -0.53632740873421
  H   5.92506946635516     -1.00994274207767      0.50910481633401
