21
Coordinates from ORCA-job 13162optt
  Br  1.25728507740636      0.71836677110947      0.63395042383911
  C   3.02195502520876      0.15805483763310      0.25862236969702
  C   3.96836619936855      1.08743169904559     -0.10962655719598
  N   3.51764779775375      2.39067098106999     -0.41422048797301
  C   3.97055429943277      3.41404796136846      0.16853618965963
  C   5.01326991407938      3.40349264725799      1.24805831891779
  N   6.20061143195905      3.05798240873318      1.03641480777967
  C   6.55550733255517      2.72986770228614     -0.32243992668116
  N   7.14793970561081      3.64887306068315     -0.98017698967795
  N   6.37169102979340      1.43637237065211     -0.69063501781851
  C   5.33362575116984      0.67257532328159     -0.36927640196048
  C   5.55789737719690     -0.74554592115486     -0.37194463802599
  C   4.62199513006255     -1.64888477791236     -0.00225572134998
  C   3.28473407161369     -1.26205776016235      0.39734389907647
  O   2.44116503647410     -2.08039449026231      0.79027364736616
  C   3.42805448375810      4.71409454929395     -0.18779597595868
  N   3.02740068957783      5.76770773849794     -0.39917745723636
  H   4.69688429823482      3.70210658239004      2.24760175095666
  H   7.38075045169257      3.27321246729466     -1.89792210694357
  H   6.55915698025247     -1.05360339578584     -0.64536133748937
  H   4.83950791679894     -2.70937075531967      0.02803121101855
