24
Coordinates from ORCA-job 13165optt
  Br  4.90634532102257     -2.00696813072666      3.00135935373206
  C   5.76986891208787     -1.33115512905936      1.46906145088145
  C   7.09409769106257     -1.01186665523007      1.39946176831946
  N   7.62622088769475     -0.57727583863588      0.24303184821992
  C   6.92431567206089     -0.62136660303798     -0.91555359467817
  C   7.54206861123307     -0.42732538102904     -2.18193214430241
  N   8.79498834033666     -0.25312190599472     -2.52717841274572
  C   9.86697407751887     -0.35744818993700     -1.66508533940907
  N   10.76801535478701      0.52338561154005     -1.47484443213376
  N   10.02046660138627     -1.62702763716695     -1.02738250714782
  C   10.19040661992702     -1.55627980639512      0.34478118264954
  C   9.50248674696289     -2.30139773753918      1.21541694205527
  C   9.05458442294366     -1.64421419614477      2.46162753440320
  N   7.90937586359997     -1.09355001551835      2.56403272416663
  C   5.48980076556355     -0.91224330245397     -0.92564774988071
  O   4.72646079515762     -0.90120609506855     -1.88374961316600
  N   4.99007240783449     -1.22871528987973      0.33058364407683
  H   6.83317236726358     -0.41316433003766     -3.00576448399930
  H   10.49454891411396      1.36371899958470     -1.97660759667093
  H   9.25356526127881     -2.23707772891941     -1.27916183418615
  H   10.77337927482789     -0.69757646371296      0.65503375032898
  H   8.79885727746171     -3.02507607171087      0.81063218877862
  H   9.69584552009056     -1.59332484480359      3.34258700833911
  H   4.00708229378361     -1.44772325812291      0.36729831236896
