24
Coordinates from ORCA-job 13168optt
  Br  1.61049368574213     -2.30278135612384     -0.65454851023912
  C   3.13465411729185     -1.28965627504404     -0.20866153531164
  C   4.18123734651720     -1.12020510646872     -1.01959338060715
  N   5.30069445061039     -0.38487239741547     -0.51209793590063
  C   5.82216627588387     -0.87965024180661      0.66233304206385
  C   4.98796314024934     -1.27691076386701      1.64052384494712
  N   5.31153839541835     -2.41678779313902      2.40809721063746
  C   4.90680675220375     -3.70144993013889      1.89733322948717
  N   4.63078162535493     -4.68504930643317      2.65130077412639
  N   4.88692265010801     -3.75333405789190      0.52027206847205
  C   4.22336449157214     -4.66157274631305     -0.33713173662838
  O   3.78126051007155     -5.71724447534267      0.07798412228181
  C   4.17791879856117     -4.30395270600055     -1.75011119241970
  C   4.38186867577808     -3.16583082390724     -2.52617279128213
  C   4.49519073667476     -1.76020594932299     -2.33197142409002
  O   4.98612052623254     -0.99074716830002     -3.20465655926559
  S   3.29256825753335     -0.73653362507903      1.45943352018964
  H   5.94744802369383     -0.17120477532069     -1.26098246419164
  H   6.87881481450245     -1.12828813261010      0.69645462474858
  H   5.05869988697252     -2.35664358133585      3.38443238099777
  H   4.65655994680461     -4.39554963109760      3.62608752952655
  H   5.26690634284643     -2.95581801918854      0.04370807141909
  H   3.97097046472854     -5.20221447153652     -2.32065660046635
  H   4.50105008464807     -3.38649666631646     -3.58537628849513
