26
Coordinates from ORCA-job 13160optt
  Br  2.12561546497798      0.21890607068201     -2.94711708330143
  C   2.50962360167318      0.62294869366988     -1.09890116943865
  C   3.25916476860393      1.75919992497662     -0.81271478036993
  N   3.44461464812041      2.82176089064321     -1.73236071372388
  C   2.23938833156891      3.64791385907253     -1.88880447796337
  C   1.79413960755073      4.44208811186559     -0.62506856638750
  N   0.35780097483537      4.39434959119526     -0.35207835188710
  C   -0.09573226162012      3.43444419882951      0.34325985576538
  N   0.64135683621967      2.36723866090070      0.81662330051720
  C   0.18405274935349      1.41815963105706      1.71428901826489
  O   -0.88150890966288      1.50778496056085      2.29326715457020
  N   1.07438596322119      0.38966195456502      1.91816171965812
  C   2.18929225749291      0.13076253537581      1.07797592808505
  O   3.31922392925881      0.89599358157675      1.41037099749870
  C   3.78375161215914      1.84602044763189      0.52064612825587
  N   4.62740424090235      2.73079803206118      0.90377171731949
  N   1.93508748181828     -0.15316683410772     -0.22203880811552
  H   4.23160251231206      3.38147908703675     -1.42282397970230
  H   1.42752135258248      2.98387678452455     -2.19111006589347
  H   2.40697908357768      4.33749485318958     -2.71834723116688
  H   2.05035743578716      5.49313446998861     -0.76474859425554
  H   2.38118145054298      4.09178720866089      0.23097363210206
  H   -1.14657164036435      3.39794728522693      0.61539783755099
  H   1.55260097562610      2.23701694305466      0.39610607797557
  H   0.77259596334070     -0.28872456760910      2.59732422712791
  H   4.81907157012179      2.61112362537091      1.89494622751415
