22
Coordinates from ORCA-job 13169optt
  Br  1.72528447140958     -1.04104040328997      0.96300388934217
  C   2.52020190288454      0.31361477741391     -0.13166037757996
  C   1.81883216298319      1.52471183294707     -0.30709660608296
  N   0.80111058002799      2.04516988852199      0.34627758548739
  C   0.01560517927342      1.77458724829697      1.35415043777464
  C   -0.73623525523354      2.87754788748161      1.88471713172315
  N   -0.61270392692696      4.13237874576306      1.59947333927990
  C   0.32851092472660      4.56080964815350      0.65764175121198
  N   1.45369259777754      5.04097175725325      0.97634590776885
  N   -0.18853322386863      4.53068543526839     -0.67358194191944
  C   0.31676476577287      3.67408251045431     -1.64785039194283
  O   -0.42448472513099      3.21728828467514     -2.49146599504221
  N   1.69939789093612      3.51434725540377     -1.74692567671719
  C   2.32855949048204      2.50449115281496     -1.30461588954550
  S   3.98701865544589      2.35403506537870     -1.89356559610284
  C   4.43582579804149      0.77242067208492     -1.32505202930310
  N   3.71607411004953     -0.02090158338162     -0.60540014079790
  H   -0.08176398558679      0.80507484005471      1.83630722605835
  H   -1.47969262992574      2.63580510511952      2.64481968865452
  H   1.92591306256776      5.36984726155208      0.13697035664503
  H   -1.19840632541545      4.46470822827155     -0.68741631479372
  H   5.42202847970951      0.45736438976217     -1.64407635411833
