25
Coordinates from ORCA-job 13177optt
  Br  0.83027159693803     -0.14377753902820      0.06112527609337
  C   2.74696355102318     -0.21730025757750      0.25980898068083
  C   3.42051829321001     -1.41892818217312      0.13804479749910
  N   2.69476251496401     -2.62491982754713      0.09765550024139
  C   3.05147322270188     -3.69027200695740     -0.84221848952733
  C   4.38794820512757     -4.32856510283082     -0.40955784971856
  N   5.52454098676144     -3.51829053906559     -0.72563326405523
  C   5.86370825360550     -2.31649516177380     -0.06329033033858
  O   7.08367278396663     -2.12380257370767      0.10188144465796
  C   4.86217264324896     -1.34808758316266      0.27071062683963
  C   5.36688981830638     -0.09301407878325      0.74487036843217
  N   4.68202632800606      1.00708820476897      0.91667242059052
  C   3.36066937359312      0.97941846368738      0.62115074122255
  C   3.11105785807624     -3.22267258224234     -2.24365300519233
  C   3.13523232605803     -2.78239809888188     -3.35645151187697
  C   2.00892112253049     -4.72691287708962     -0.72639589881650
  C   1.17367397577169     -5.57622988359300     -0.60554026032643
  H   1.70282959800859     -2.43715620010047      0.03375534893867
  H   4.49133496171805     -5.27388672432535     -0.94306323479997
  H   4.27121853532056     -4.53469511270293      0.66338842673405
  H   6.37609003245616     -4.04582321656654     -0.84836965020499
  H   6.42680846577706     -0.06003498453556      0.96743368508796
  H   2.79596144685614      1.89820129716788      0.69204432174310
  H   3.17547205356331     -2.38019193258915     -4.33927229136847
  H   0.42678205241068     -6.32525350039011     -0.50209615253590
