23
Coordinates from ORCA-job 13172optt
  Br  1.60443864325144     -0.18208592151758     -0.44472995380361
  C   3.28235433411148      0.65880439874703     -0.16426976597539
  C   3.30841380270081      2.01809421436709      0.08456879258240
  N   2.19578015873517      2.78252112682658      0.07611054011686
  C   2.23305039737045      3.86786250481690      0.83832334742349
  C   1.47599816282249      5.01571479661688      0.56853044470868
  N   1.73815639451482      6.24957161210272      0.96947605020513
  C   2.95297441256306      6.61746468343852      1.45715121567869
  N   3.22883646912750      7.66829334498255      2.11861946225602
  O   4.06224263996388      5.76278575583827      1.25653401409805
  C   4.30554969922269      5.21072604515781      0.04181785916445
  O   4.08034252252235      5.77831193735586     -0.98751679049471
  C   5.06063498107167      3.92133394855088      0.14253640005316
  C   4.66450360752902      2.62937242208279      0.19401422670019
  N   5.67729739811952      1.65966589069693      0.27730070089580
  C   5.49774305518141      0.34036538071188     -0.00142301180688
  N   4.35103103203663     -0.18429413696476     -0.23219048901321
  H   2.94413366820032      3.91261013808159      1.65731300340877
  H   0.62516489619489      4.89571192396448     -0.10041806196541
  H   2.35265820895696      8.16667967988224      2.25583616180239
  H   6.13268550522707      4.08993744848850      0.08571111412863
  H   6.61995028030980      1.99711959646315      0.38600765517709
  H   6.39305973026633     -0.27056679069059     -0.00230291534065
