22
Coordinates from ORCA-job 13185optt
  Br  1.20375702046945     -1.83145599896876      0.11498769387839
  C   2.31702761321477     -0.63576490128175     -0.82821483398977
  C   1.99773374571029     -0.14941116733676     -2.06889178519579
  N   3.02839185336504      0.76840805513378     -2.58577032202341
  C   4.30057125285647      0.12391342005458     -2.63964603079783
  C   5.08102051465583     -0.03282610602506     -3.91117100750758
  N   4.87797170665346      0.33835870005804     -5.09868639721401
  C   3.88400092262323      1.17026618360598     -5.66751422989681
  O   4.24150931724906      2.25347561303532     -6.08921809698984
  C   2.49297251031468      0.73122919041447     -5.71405577807073
  C   2.07813919046672     -0.16954210692759     -4.80593257103393
  C   0.83248165131293     -0.24944893417571     -4.08510132546620
  C   -0.45853672781592     -0.12363467149542     -4.70595436841836
  O   -0.66334389590456      0.10322566507971     -5.89236320353804
  N   0.88265618266341     -0.42449731950208     -2.75144756229349
  N   4.85573798707189     -0.40201492679005     -1.61010598617982
  S   3.93552045002704     -0.45817038233785     -0.20383510950866
  H   3.11273448119530      1.52848311936695     -1.90962976267067
  H   5.97479200224838     -0.63003070329701     -3.72386136675755
  H   1.81085288075092      1.41713892385201     -6.19825157584618
  H   2.84201502186884     -0.80560945194394     -4.37359803882207
  H   -1.29700568099727     -0.25109220051887     -3.99573834165759
