26
Coordinates from ORCA-job 13182optt
  Br  1.09662553574842     -0.23831950298415     -0.78997672218355
  C   2.84738372370031     -0.02257767888793      0.14519543864258
  C   3.47903914105866      1.20950931265946      0.18195325844764
  N   4.89667072719193      1.31144345404820     -0.02174820206908
  C   5.25313048351751      2.63180666240666      0.06195381846172
  C   6.65467384170705      3.14117575864356     -0.05636092683200
  N   7.24753826194230      2.91189628844429     -1.36856461843372
  C   7.82267928537118      3.87509947180213     -2.10643218386884
  O   7.93117527071896      5.04695776920679     -1.80436961886239
  C   4.14181178274449      3.39335676777364      0.26980355687036
  C   2.96586181868339      2.54042644390949      0.37803187488287
  N   1.71473734925703      2.85184783575166      0.59859752929692
  C   5.67064283217753      0.13113550822482     -0.03547955596803
  C   5.01241434672718     -1.05885562684495     -0.09632835185974
  N   3.65933167247199     -1.14371211922411     -0.12235072275278
  C   7.08121486219225      0.13671039506802      0.02215424017169
  C   8.28837956305903      0.10508891230621      0.04286695642858
  H   7.30076821565079      2.70227380124928      0.70662240289504
  H   6.63582238904680      4.21891052084361      0.08879064231604
  H   7.28750390638462      1.96222119005078     -1.70397094394151
  H   8.21056604547738      3.48580849542805     -3.06369988345945
  H   4.14103041338986      4.47108996474978      0.33453567369953
  H   1.64111799415222      3.86524148619948      0.66862385351882
  H   5.57125537913295     -1.98280564521816     -0.09569838949064
  H   3.22583938709459     -2.04741812521921     -0.03912937815380
  H   9.34978577140126      0.08568865961247      0.08498025224374
