22
Coordinates from ORCA-job 13188optt
  Br  1.15371385859919      0.30519229607963     -0.15964845887739
  C   3.03702220347302      0.03835212479203     -0.10912232908947
  C   3.53129810438636     -1.26469789306577     -0.08140149306657
  N   2.74293121758554     -2.34275040876102     -0.07172698579786
  C   3.34373664402666     -3.54915928217283     -0.05410129435888
  C   4.72303517935974     -3.64747899160024     -0.05507555425383
  N   5.44203336775210     -4.85738134770174     -0.07192141217500
  C   4.97704941932844     -6.12436105878190     -0.01372057460319
  O   3.81521957719731     -6.46275009404311      0.08174774029711
  C   6.05683728754753     -7.11951443737153     -0.08831588236509
  C   6.91625630703147     -7.95163809760735     -0.15110348845778
  N   5.55183414957395     -2.60300655124340     -0.05831526325195
  N   4.92027104229685     -1.37986482074766     -0.06114252008170
  C   5.79401144013475     -0.27303761706147     -0.04844168319988
  N   7.07475515913967     -0.35681450852592     -0.02258601779139
  C   5.10150891655826      0.99393873246422     -0.07034481820178
  N   3.80807357927627      1.11895489727602     -0.10221815635020
  H   2.72329473503810     -4.43062318396978     -0.04446870343251
  H   6.44153148742748     -4.72471850877099     -0.13147921698874
  H   7.67664052433611     -8.69261613959799     -0.21063145439589
  H   7.34906749491092     -1.33498940038224     -0.01115656356329
  H   5.71787830502018      1.88396429079310     -0.06282586999474
