22
Coordinates from ORCA-job 13195optt
  Br  2.03601014065617     -1.72847597872816     -1.36716205868675
  C   2.89220528962106     -0.47231662750773     -0.26404807872974
  C   2.28515609708718      0.67336517183987      0.11972864103682
  N   0.96130238389849      0.85857925709952     -0.24746041006200
  C   0.46422044918312      1.87699573970855     -0.86071350192035
  C   0.97876461742452      3.20256091393292     -1.16449524709005
  N   0.65486138358738      3.72116031998217     -2.34143645647628
  C   1.55006968843006      3.99610828201860     -0.09851358642219
  O   1.84062237768765      5.19017221667747     -0.22304410085865
  C   1.62194590428227      3.38112999933186      1.29219761702228
  N   0.79418186010210      3.62883674383747      2.21960171525403
  N   2.76716123997998      2.63894741936212      1.56134644902185
  C   3.07826282370636      1.54230423998375      1.01760297503981
  N   4.34963846238501      1.05093412488498      1.35550567430272
  C   4.95208176269515     -0.10310828457716      0.95269515333056
  O   6.06550100439070     -0.44620902008731      1.29768371300215
  N   4.16915517866715     -0.85070533046852      0.11166831610009
  H   -0.53976916497454      1.71003716762544     -1.25656099747743
  H   0.98966137776409      4.68715596368190     -2.33864429088688
  H   0.06964422682907      4.24414972510906      1.85136296897330
  H   4.88330809456593      1.63877595767053      1.97928370281877
  H   4.57101480203105     -1.70339800137736     -0.23959819729208
