24
Coordinates from ORCA-job 13207optt
  Br  1.15662632078047     -0.13779213219501     -0.46218499177783
  C   3.04743373321920     -0.09215538279199     -0.29432481807185
  C   3.73078362716090     -1.24437790730487     -0.09592119210941
  N   3.09416774767088     -2.45242413395422      0.23552430707990
  C   3.23477750143690     -3.68752018723843     -0.53142127019680
  C   4.56120312710698     -4.36053885483788     -0.22206662984602
  N   5.64365858742437     -3.43068171000467     -0.51948929504312
  C   5.79457754781467     -2.37301029484786      0.41950045431263
  O   6.47828942739288     -2.46719281745640      1.40128177619021
  N   5.11756508520725     -1.19439590039475      0.03018398507941
  C   5.80372605916118      0.05931850192113     -0.00872059209523
  C   7.18601459219563     -0.00521782947972     -0.17062862305725
  C   8.38350619557426     -0.12417152710909     -0.32033420285327
  C   5.03001795697727      1.23445473025217     -0.02140097287598
  Br  5.91980711779609      2.89460999568940      0.13457631356323
  C   3.63207879922201      1.27305824363648     -0.20091608812627
  O   2.91095883161907      2.28160250350069     -0.25682128488474
  H   2.12026813088212     -2.25367667250694      0.40899648248255
  H   3.16716175625017     -3.50375968978084     -1.61350897974520
  H   2.39808511978148     -4.33190317445436     -0.25467920867801
  H   4.68173063026598     -5.26814095032840     -0.81721557093018
  H   4.62058490877178     -4.62563164571590      0.83397004216949
  H   5.48589997015773     -3.02449426114447     -1.43574358718266
  H   9.43707722613063     -0.21495890345402     -0.41365605340361
