23
Coordinates from ORCA-job 13201optt
  Br  1.55702335033800     -0.40399725167472      0.44382081407517
  C   3.36372826148798     -0.11795501068325     -0.12340720989965
  C   3.98730325199320      1.13668843822437     -0.06111517796908
  N   3.51928306278605      2.44053185665032     -0.06562880561618
  C   2.16889533695969      2.90548667864395     -0.13362456837405
  C   1.49521937514406      2.60610081193303     -1.41098962186502
  N   0.93367607741745      2.39756938073379     -2.38795634167419
  C   4.58975799864635      3.37026518726954     -0.06616729177393
  O   4.42029418570278      4.59997304801829     -0.05461342379447
  C   5.75983720316600      2.56836716794162     -0.05073379848881
  O   7.05617008560547      3.04686809234288     -0.08967254599072
  C   7.39093439753388      3.96236437100023      0.84255782286508
  N   8.54482584109536      4.45449189497265      0.95254881548476
  C   5.38562368116393      1.23292002201210     -0.04912399800038
  O   6.21591014001091      0.15652997650379     -0.06998466941527
  C   5.59135017676421     -1.07141593679513     -0.07473737057244
  C   4.25304803485270     -1.22982487891436     -0.08116622667846
  H   2.22928084753295      3.99195432944956     -0.02790897714349
  H   1.55250558035619      2.49630153022440      0.66772091525451
  H   6.57207418714829      4.25364046715594      1.49691108371015
  H   9.15484547711358      4.05620329864845      0.23703892389576
  H   6.30373539775625     -1.88017274717408     -0.09902411975249
  H   3.85967804942462     -2.23689072648341     -0.06574422827677
