25
Coordinates from ORCA-job 13206optt
  Br  1.84239915257372      0.01508392354822      1.97767901862750
  C   3.09035283113503      0.02374855035403      0.48490715649564
  C   3.74618038006156     -1.14799561814447      0.14693675670096
  N   5.05759487127666     -1.05846871252534     -0.32180393382705
  C   5.81929524294068      0.06883004084638     -0.06676979888032
  C   5.18470536191322      1.20778466422080      0.23441882546867
  N   5.84877125807610      2.42509527462081      0.48051687757407
  C   6.87017368285197      2.91038917341629     -0.26194217782143
  O   7.48653786947882      3.92564828810367     -0.01667295888432
  N   3.78591792640280      1.25274680284786      0.32171215859455
  C   3.09316357525051      2.29301230033710     -0.39422218930461
  C   2.88448185741470      3.58017242112443      0.36407487823340
  O   3.41532704652283      3.88917498006987      1.39461660096196
  N   5.61004886099368     -2.26921238628065     -0.58338440084075
  C   4.65845858194410     -3.13786288823007     -0.33736381576694
  C   3.42288646856658     -2.55054656258166      0.13639227143265
  N   2.26762922605109     -3.10086818083510      0.45738225783894
  H   6.89063176207439     -0.05567839928088     -0.04408357876651
  H   5.48588163584374      3.00279006290398      1.23193003285681
  H   7.09153751740068      2.27397580229316     -1.13389037421620
  H   2.10623716539865      1.91262618759393     -0.67489333974143
  H   3.59699378587360      2.56742193677300     -1.33598743985376
  H   2.17890640892819      4.27949726952393     -0.13116373109504
  H   4.83957588248410     -4.19130392548257     -0.49956539048021
  H   2.34531164854251     -4.10906100521673      0.32717629469343
