25
Coordinates from ORCA-job 13219optt
  Br  1.19393024539485      0.20560755156848     -0.82561709929938
  C   3.03155353444126      0.15618926098907     -0.31204502934063
  C   3.72637733081287     -1.07319442004777     -0.46346948666564
  N   2.97306500817607     -2.24995038506840     -0.73488624333532
  C   2.25590721574913     -2.84825975742547      0.37261700950332
  C   3.14806107044365     -3.76601572223355      1.28942099555410
  N   4.50339945510137     -3.26528082257791      1.35308463650781
  C   5.20565237910537     -3.47476559618906      0.17804428187906
  O   5.33913233446088     -4.55943830595420     -0.32921394914081
  O   5.75598641251469     -2.38465521352030     -0.39284946184103
  C   5.11118533453369     -1.14841837951443     -0.20061296985592
  C   5.91147591478821     -0.13170911290339      0.22376235313010
  S   5.30870886087366      1.47326456578540      0.52381214818472
  C   3.55279155981476      1.40114933305363      0.10602962008205
  N   2.88994164283731      2.50563597697357      0.20906841036991
  C   2.50166588292001     -3.85536674864124      2.63672028293816
  O   2.96454415977153     -3.43295748338757      3.66015267232974
  H   3.42084176176195     -2.90892056745238     -1.35404911315277
  H   1.40410161059674     -3.42641372228233      0.00666185124358
  H   1.85686439196494     -2.02179651235549      0.96455213490001
  H   3.18775085162742     -4.76999252128135      0.85937582952647
  H   4.54695534448404     -2.30776646282188      1.68451873163882
  H   6.97347266956911     -0.27616295573078      0.35115940710895
  H   3.49363878332521      3.26368340187204      0.51681100158888
  H   1.48999624493118     -4.31046540085467      2.62195198614579
