22
Coordinates from ORCA-job 13215optt
  Br  0.91989578573695     -1.74931243073369      0.19219992466726
  C   2.60282264915130     -0.91497224928547      0.09464471673061
  C   2.71271306652061      0.46472871297232      0.22119785355255
  N   1.58951829223424      1.17053285065667      0.43240782721563
  C   1.45961074502838      2.48154170479912      0.37893441812765
  C   2.40237654326157      3.49219743397589      0.08987743785756
  N   1.86979124963549      4.78617055997101     -0.14525729715973
  C   0.69189071253310      5.11758545214383     -0.72527889985025
  O   0.32770116879038      6.25908738457287     -0.91853993533039
  N   3.71436373234935      3.50098499989569      0.07614757918140
  C   4.52926925307768      2.43918079420843      0.32018627537838
  O   5.70655914696695      2.63153433722431      0.59023355556972
  C   4.07873403303153      1.00238657852747      0.16485847199393
  C   5.08853744511149      0.13907156322140     -0.00741394767440
  O   4.95870549020737     -1.18671134630864     -0.17352978987648
  C   3.71565928295487     -1.79797599416046     -0.12849809927241
  N   3.65423088091352     -3.05928978984447     -0.28210814616657
  H   0.45379534961553      2.83591633218062      0.58670316000246
  H   2.53472474980631      5.53692076228253     -0.01114004977101
  H   0.08662263592334      4.24836512102618     -1.01866087027531
  H   6.11856490033086      0.46029266455173     -0.02069263088391
  H   4.59391288681913     -3.42523544187736     -0.41727155401667
