25
Coordinates from ORCA-job 13227optt
  Br  1.33561500088876     -0.11784393521842     -1.36186630534340
  C   3.11383525407664     -0.08922772966362     -0.80104498700755
  C   3.77886544080897     -1.17305094141593     -0.29910213064991
  N   3.38262286511419     -2.40363357242683      0.03671973281458
  C   4.48664611326936     -3.03891627512997      0.49087567052486
  C   5.66221112608211     -2.23296620806706      0.46089622497166
  N   6.91880842166446     -2.42354776103822      0.74004298499558
  N   5.16853369566336     -1.00733933560790     -0.04375349204814
  C   5.65221432848352      0.28720253334679      0.00645780118672
  Br  7.13277284978126      0.69610623268609      1.11857231757543
  C   4.98388087910284      1.27911227542153     -0.59418139385505
  C   5.34913604797479      2.72343350649679     -0.59333699503191
  N   4.81111413428243      3.42372271737545      0.57348861702267
  C   5.30624677483142      4.78801447845941      0.63826138247691
  C   4.90115626079025      5.45381139046574      1.87582796226997
  C   4.58535278699186      5.98236689898028      2.90311689970376
  O   3.84184522331557      0.99273351522879     -1.31133643188353
  H   4.46346673766114     -4.07235712863150      0.80225589922068
  H   7.02038034636781     -3.37166840100454      1.09287183360303
  H   4.91486369072442      3.17323239143030     -1.49025039950563
  H   6.44082704431953      2.82564700271326     -0.65681230620698
  H   5.08522222228060      2.91987176682850      1.41112760106374
  H   4.89999351717882      5.34268423211417     -0.21310000560454
  H   6.40424388940210      4.84676960440014      0.55816681597747
  H   4.29514534894367      6.44284274225674      3.81610270372954
