23
Coordinates from ORCA-job 13220opt
  Br  3.03962407108178      0.09922411422298      2.19824699376502
  C   4.26985891807596     -0.33947842019032      0.84077891824204
  C   5.60268066384998     -0.75702045082439      1.10290987387883
  N   6.42876700879776     -0.96871117210581      0.02743473630814
  C   6.05136288465745     -0.79130142424580     -1.17286496972760
  C   7.13222178079188     -0.91853034834861     -2.23835224830490
  N   8.38974893201850     -1.28357105591877     -1.59021745540983
  C   8.71980999392813     -0.36675040651247     -0.58935320094388
  O   8.69212848669070      0.82459239094818     -0.74621933036874
  O   9.12814140185975     -0.96895323001613      0.55182764764450
  C   8.54175481041298     -0.44065159210488      1.75714447849014
  O   7.62034143499363     -1.30694011268960      2.31646110591472
  C   6.23206983516528     -0.99164449364274      2.37214757656417
  O   5.72416421428887     -1.02267534332712      3.47224013064568
  N   4.77440025549753     -0.43712601815172     -1.49176944572756
  C   3.79699163224077     -0.16168412996448     -0.48985210718060
  O   2.69030297621536      0.19999520980186     -0.87591058004005
  H   7.25895137057328      0.03948384107399     -2.74561729973866
  H   6.87923723395494     -1.67097782459691     -2.98786814136995
  H   8.29918736412051     -2.19228817948101     -1.15227061867719
  H   9.37292445835345     -0.35231384496891      2.45525191868257
  H   8.11052825673462      0.53528188844862      1.53131971924956
  H   4.47880201569620     -0.24795939740589     -2.43646770189644
