22
Coordinates from ORCA-job 13221optt
  Br  1.63507888844062     -1.66974331407772      1.54238123797496
  C   2.74681468742876     -0.62461119928268      0.41108076822290
  C   2.44729687128042      0.72225443137327      0.20399998337690
  N   1.31390369858956      1.23682687355531      0.83401054246411
  C   0.94112805491005      2.52019367672344      0.51072177746750
  C   0.70668539792850      3.53543593840356      1.33463207062266
  N   0.54255252437857      4.82816448337272      0.81728376816106
  C   1.32585580758268      5.15959790036978     -0.12547971295890
  S   2.70197002760988      4.48297785689371     -1.00571416708319
  C   3.40395378584435      2.88754923819692     -0.88319314658045
  C   3.32287280311438      1.51864853411061     -0.59297245743578
  C   4.49572633652793      0.78468755857548     -1.24030320885625
  O   5.26354578117362      1.39380303742781     -1.98614730286710
  N   4.69845859628233     -0.53539366912386     -0.98062220837431
  C   3.86954285583045     -1.19048476728989     -0.18627768540279
  C   4.17575583105618     -2.58531415135051      0.03867246110673
  N   4.42015246631701     -3.69442608579558      0.21375384531214
  H   1.14768212744974      0.90897159141066      1.77445037992548
  H   0.89484733981825      2.68963525091562     -0.55685320458044
  H   0.67132538460998      3.43315856488040      2.41300431681694
  H   1.21106165018045      6.15212836353421     -0.56454289810972
  H   4.31478908364627      3.06293988717672     -1.45488515920246
