26
Coordinates from ORCA-job 13233optt
  Br  1.48249587724968      0.17367375713487     -1.16070190363485
  C   2.98753784225361      0.04163261538772      0.06266097869551
  C   3.69625858233604     -1.14895242506706      0.12502017261978
  N   3.30150211475397     -2.42469942210385      0.07351063465326
  C   4.41427219926906     -3.16486411880120      0.22864825748832
  C   5.59871783907774     -2.37066751695282      0.36362576952062
  N   6.87803138086821     -2.59367065814691      0.46862763355444
  N   5.08339977506569     -1.07127154517404      0.32086341314650
  C   5.75624914492014      0.08040241920248     -0.04599051811502
  C   5.05111704705012      1.20685220369608     -0.19925133036065
  O   3.70711589312149      1.22869951718300      0.15110240023181
  N   5.61940556909781      2.38943096186160     -0.61404002579022
  C   4.95042630646538      3.40793207746543     -0.92700915387891
  C   3.46322269023008      3.69300948936805     -1.01666800049576
  C   3.41176648542540      4.97720645550962     -1.84206010010677
  C   4.74959381278534      5.61793704798545     -1.49572884745791
  O   5.64397379728195      4.53159684485547     -1.30287078232039
  H   4.38522718581281     -4.24441712458186      0.23513557889739
  H   7.03701929011146     -3.59673223260128      0.44246083231267
  H   6.81399907236970      0.00363492697420     -0.24122162442335
  H   3.06744730443901      3.83812277592498     -0.00965533885222
  H   2.92381847927478      2.85562556106916     -1.44917756215205
  H   2.56382921009222      5.61597846315325     -1.60073389683109
  H   3.37706067751575      4.74089982271189     -2.90648849362046
  H   4.68473528361790      6.19901987943573     -0.56916166983507
  H   5.15777713951449      6.25262022451001     -2.28089642324556
