23
Coordinates from ORCA-job 13239optt
  Br  1.13803850308631     -0.33808670312948      0.63619232511606
  C   3.00807089916558     -0.19789031767820      0.51482348580472
  C   3.79566650243106     -1.29459212020138      0.32423937862234
  N   3.47887254702890     -2.59262836929258      0.32925357641867
  C   4.61508920855614     -3.28409246212173      0.06219229702595
  C   5.74114381712760     -2.39856931007404     -0.17006959549262
  N   6.97565901771656     -2.54533313289050     -0.49615476062799
  N   5.18144915920803     -1.12022632234290      0.05428802501965
  N   5.69656533415952     -0.03164649712237     -0.57894757051121
  C   5.11999765997621      1.08519483368905     -0.42558623415505
  S   3.71555313738653      1.40550106104151      0.59645228421206
  C   4.63067679622262     -4.71073114654709      0.03206923409495
  C   3.58775115965833     -5.53673301175299      0.23239254336335
  C   4.02460748059578     -6.96061642238327      0.12778082327841
  O   5.42666719169494     -6.90529962311752     -0.11760734702329
  C   5.85475749230985     -5.55225092149422     -0.22762279839893
  H   7.17654230758096     -3.53005410140471     -0.62963104533734
  H   5.53780945788596      1.93829553469168     -0.94718697421891
  H   2.57816344118252     -5.21717809852791      0.44174174681105
  H   3.53495571930528     -7.50169245971341     -0.69416584356231
  H   3.84708923086074     -7.53507321389976      1.04661650388849
  H   6.26693167209539     -5.38478641573518     -1.23013785276418
  H   6.64894226476488     -5.36551077999282      0.50406779843613
