23
Coordinates from ORCA-job 13232optt
  Br  1.19322550732483      0.28115540167440      1.32622022302267
  C   2.81201418103939      0.16212654671888      0.34479496012365
  C   3.57028622687080      1.27648700582393      0.10952353243760
  N   3.34046552726797      2.59086118680310      0.28790029409151
  C   4.49255726751337      3.21585762350552     -0.04569166720548
  C   5.52713102085122      2.31614667784888     -0.43548420857118
  N   6.78544464968097      2.40313246090787     -0.77208055945906
  N   4.88204188687244      1.07218889126546     -0.36630800082478
  C   5.49057164274575     -0.15716931904679     -0.19576655761600
  C   4.71491773321709     -1.21496451693679      0.02267983079004
  N   3.30704114249107     -1.14527838997572      0.06556760373463
  O   5.29742186287752     -2.44022324377579      0.35309488069260
  C   5.05924538083171     -3.48172156440958     -0.45164530184481
  C   5.56920477764808     -4.72679644348312     -0.21275686673190
  S   5.07542951728653     -5.78231797699505     -1.46065080011360
  C   4.23027622336685     -4.49440674910144     -2.20083558538664
  N   4.30184856894526     -3.35906540496575     -1.58079324594290
  H   4.58851980616926      4.29082838725643     -0.00608930721401
  H   7.06476370906716      3.37892737085000     -0.72741238035210
  H   6.57089259755763     -0.17047706126661     -0.17651793820537
  H   2.89549278742521     -1.55680090033638     -0.76979084313423
  H   6.18690820469296     -5.03737396369956      0.61095316602259
  H   3.68129977825678     -4.64111601866188     -3.11891122831322
