24
Coordinates from ORCA-job 13235optt
  Br  1.37183794329880      0.17750999283036      1.29179629454421
  C   2.99712285983078      0.05335622260620      0.34636083674527
  C   3.66979314408691     -1.13750569363618      0.23813052659028
  N   3.30270574483287     -2.37986179689449      0.59432097434657
  C   4.35693566950521     -3.17914774617952      0.32717399065005
  C   5.47016290315780     -2.47021111182485     -0.20421868756955
  N   6.68969311512636     -2.75725038315946     -0.56271666525636
  N   4.98684589078826     -1.14697626392505     -0.27894012797103
  C   5.81801763361221     -0.04222777565667     -0.23367662557316
  C   5.35566687416199      1.20793190818623     -0.21053162456814
  S   3.61807691084306      1.52371342669007     -0.37893470048907
  C   6.19569805797755      2.43389931462307     -0.05534110089690
  C   6.18374381245105      3.07983792414426      1.35209382654588
  N   7.53599107680473      3.63783293110931      1.54265494784112
  C   8.25369816224448      3.09324125307772      0.64739686154375
  N   7.63549968225004      2.20587701792854     -0.20699301407559
  H   4.32658615801453     -4.24381411742580      0.50658806480664
  H   6.85278408773184     -3.74678940513262     -0.39993020996964
  H   6.87303694117626     -0.28033893731997     -0.17086708934175
  H   5.86564465927213      3.18383705379846     -0.79064691242435
  H   6.00509902791825      2.31089718508166      2.10930695979635
  H   5.42025542613667      3.84685006088278      1.45918553798259
  H   9.32150072118103      3.26330306927249      0.55428174128070
  H   8.01160349759695      2.04903587092344     -1.12849380453790
