23
Coordinates from ORCA-job 13247optt
  Br  1.03594567830158     -0.01270261975663     -0.09114319224373
  C   2.93077811114477     -0.01648452912486      0.02936305739186
  C   3.60018206192560     -1.26129967591097      0.19451964137010
  N   2.92001664939337     -2.41331578164998      0.28437004294887
  C   3.59393703651674     -3.55763055692538      0.24976303711814
  C   2.93081188975880     -4.78969629143319      0.40206468237179
  N   2.41750292232293     -5.82321020595162      0.51409266820632
  N   5.00017859894649     -3.59137989676346      0.04124317327524
  C   5.75042897413259     -2.46751390984034      0.58656940978451
  C   5.02488454671095     -1.18406575602155      0.28842588494505
  C   5.69214128669596      0.00981594941047      0.18629681712689
  C   5.00161766243974      1.22071712077598      0.00770569567913
  C   3.59711013966102      1.17743716798933     -0.06058504985620
  C   5.69560893135412      2.45613611383459     -0.09448704166977
  C   6.28587643863537      3.50336514191860     -0.18140201625078
  C   5.63537907360097     -4.58462406092772     -0.62230522972667
  O   6.84136773681757     -4.66629303588985     -0.76812652314328
  H   6.74414564802661     -2.48742258013935      0.14331706146466
  H   5.85631954918072     -2.60629192897470      1.66911005272942
  H   6.77430232812704      0.02674353990602      0.25743675522817
  H   3.04145901348683      2.09561530262208     -0.19244690352898
  H   6.80544294535061      4.42645582618030     -0.25920308475952
  H   4.93856277746954     -5.33435533332771     -1.02357893846121
