25
Coordinates from ORCA-job 13248optt
  Br  0.91198327053121     -1.86075052571168     -0.20244246002809
  C   2.62098372954337     -1.04559351963987     -0.05680320203523
  C   2.74980478744739      0.35670551924181     -0.08776377252432
  N   1.65028792990559      1.09793113743631     -0.25115000577926
  C   1.48450858031212      2.39068147494372     -0.27507064571654
  C   2.39260056863747      3.51397532370701     -0.05281552663518
  N   1.89654603770000      4.69753199168846     -0.09835104383532
  N   3.74099217806055      3.30157704095083      0.21627811951333
  C   4.48441073925205      2.14187587467584      0.18839489081026
  C   4.12288066362706      0.85038447296932      0.05589579730716
  C   5.25357746309238     -0.14240118198914      0.09006524983075
  N   6.46696908513850      0.30766113104612      0.06143235903486
  C   7.49376425389539     -0.70585421420333      0.13679867105220
  C   8.83742259707956     -0.11503993510792      0.12894437732388
  C   9.94934039654592      0.33575061900728      0.12713771453386
  N   4.98418855770825     -1.48059897199358      0.16087831773952
  C   3.72049922102411     -1.87415791405867      0.08899769179345
  H   0.47569177269835      2.74472070888687     -0.46080644357860
  H   2.60986275328204      5.40367244408964      0.08070703433119
  H   4.27508909966281      4.14522734938349      0.34056975151340
  H   5.54642076940399      2.31794288942727      0.30570723660321
  H   7.42061360319646     -1.41576062015208     -0.69679569251296
  H   7.38983337636255     -1.32247843288317      1.03863300370001
  H   10.92836032137442      0.74797589204149      0.12180950555476
  H   3.54836824451831     -2.94597855375603      0.13974907200366
