22
Coordinates from ORCA-job 13244optt
  Br  0.75500657910908     -1.25389278863221      0.11871280493878
  C   2.54722269386697     -0.65401046430421      0.10870207524189
  C   2.82334107732185      0.69199807886503      0.29953853499442
  N   1.77195928952934      1.55046942180296      0.56724535786233
  C   1.77224842058198      2.80227316363723      0.33112893208154
  C   2.82087839878591      3.63831437297239     -0.26298145739080
  N   4.08273798306196      3.50812883960191     -0.16458418954956
  N   4.57635774990928      2.44753098194880      0.56925859124785
  C   4.19697235204907      1.11390254877262      0.26865815686735
  C   5.19055518062661      0.20054469179671      0.06255809713511
  O   6.49992650862341      0.65927336466177      0.01317313719838
  C   7.41919064271238      0.02397979665455      0.78576153861818
  N   8.64791008988155      0.28040247657477      0.74046959192197
  C   4.96587751524353     -1.20783357065306     -0.16782312391048
  O   5.90658467205449     -1.97841836770940     -0.35987240408643
  C   3.53822978815728     -1.67251394518893     -0.14491729641253
  O   3.27117722107071     -2.86159126119198     -0.33552099955613
  H   0.84697704786865      3.33428931673571      0.55558138217527
  H   2.49236870900501      4.52660832932095     -0.79626393453928
  H   5.58335715831863      2.51212961080098      0.54214008300013
  H   7.00526466945502     -0.70369776988518      1.47691987153899
  H   8.83385625276718      0.97311317341856      0.01411525062300
