19
Coordinates from ORCA-job 13249opt
  Br  1.21664893642237     -0.58451531565112     -0.80387660185097
  C   2.99310576934504     -0.16032547131981     -0.33303221456257
  C   3.44106678586856      1.20235315634518     -0.33822089528787
  N   2.57630143602573      2.15782102243774     -0.70512125049657
  C   2.67499122435334      3.44999674383522     -0.57526867348124
  C   3.71168734890042      4.24966928821313      0.07598139200193
  N   3.46600651947031      5.34743503469123      0.69351585476373
  N   5.06351304469901      3.89030879294002     -0.04534705388074
  C   5.49946968538141      2.70207569526263     -0.08223259488545
  C   4.83122577246124      1.38274778803577      0.00239043346884
  N   5.67516586619455      0.41989748733959      0.29692173975880
  C   5.20357137753050     -0.84115237127954      0.34115239472080
  C   3.85638462722629     -1.16275518041617      0.01559391417953
  S   3.70724569761307     -2.85888045156241      0.15600921659873
  N   5.37107367813517     -3.03596778064159      0.62381532947232
  N   5.96723847186423     -1.90792254405295      0.65931024585990
  H   1.81550016388539      4.02679185161180     -0.91462960707146
  H   2.45721025428712      5.49684301771664      0.70658984119977
  H   6.57959334033598      2.58357923649459     -0.17255147050748
