30
Coordinates from ORCA-job 13251optt
  Br  1.73094793930703     -1.34049784112167     -1.86048423705878
  C   2.36116715776167      0.02233135162896     -0.68564376738145
  C   3.11880841349263      1.06277223518418     -1.24674443239707
  N   2.70754078054283      1.73982473434818     -2.41178254274275
  C   1.40998523469683      2.42596882603627     -2.38994768333882
  C   1.29233042186026      3.60599379092597     -1.43419875633023
  N   1.56911915945362      4.82580804863564     -1.73423957608824
  N   0.86283035520433      3.28182186220750     -0.18825320771167
  C   0.71916519514818      4.24572683990717      0.88329340234955
  C   1.02917161720124      3.63677640630084      2.25605357783898
  N   2.43287496027362      3.60920716651233      2.66647324398489
  C   3.39021042773559      3.29128102928694      1.61942206633042
  C   3.14373629487310      1.95836052139722      0.95813957947394
  O   3.69195949036431      1.95201488069877     -0.27190249708799
  N   2.46873259434651      1.02826352965714      1.48049862245771
  C   2.20463579052783     -0.15623977776063      0.70639450612637
  N   1.79786082220159     -1.23566870430733      1.30609700993086
  H   3.44026308529558      2.33090535579678     -2.77836072239518
  H   0.66057687139351      1.67093972530719     -2.14024567853993
  H   1.19911875388905      2.79143070145433     -3.39710479699942
  H   1.86980236121508      4.87301479562876     -2.70337219328868
  H   0.75313203057967      2.30033174002580      0.02862857001670
  H   -0.30282657466746      4.64271211691301      0.88998236519354
  H   1.37976645077831      5.08767110174239      0.66541342295377
  H   0.49115443496692      4.20495231324466      3.01725543170734
  H   0.64499634672633      2.61487843655836      2.28792092776412
  H   2.68333241346704      4.50997397527065      3.05350823535843
  H   4.39305207894510      3.28541351387870      2.05530498798474
  H   3.39722483192875      4.02498102299994      0.80189203705650
  H   1.71933026049090     -1.01794969835810      2.29700210483235
