26
Coordinates from ORCA-job 13256optt
  Br  1.12871278787819      0.10270343576041      0.43124282870109
  C   3.05570251361660     -0.04158308873521      0.31355547277089
  C   3.58720615277296     -1.22878313998501     -0.12395620265033
  N   2.76351600604760     -2.24926027167823     -0.67939310122438
  C   2.19345149129876     -3.25766351119762      0.21094741078466
  C   3.20165331457711     -4.35760374705848      0.46798285210536
  N   3.06628378549556     -5.58355652262952      0.17282516621848
  N   4.43582558990574     -3.87104293712618      0.95331806651506
  C   5.42480743639106     -3.62409092680898     -0.05805382283850
  N   5.76728707522288     -2.41954217676584     -0.44525199140923
  C   5.04188099919340     -1.30982532015082     -0.18528411172120
  C   5.71654422629043     -0.06703827338521     -0.00514071061335
  C   5.02391547986522      1.02872582462942      0.43254651357137
  N   5.72042144739542      2.22743463586984      0.69515495108772
  C   5.17528735589788      3.40095935058656      1.08901908125685
  O   5.83111308761453      4.40243798620464      1.31646427830225
  N   3.69901748907472      1.06251118892353      0.67285235429983
  H   3.26835763679600     -2.70333294808574     -1.43230121711794
  H   1.28500771314638     -3.67284615626494     -0.23349240534774
  H   1.90919364765387     -2.76389268501083      1.14308450022091
  H   2.14516260510600     -5.73268268466015     -0.23677437843223
  H   4.28640600279228     -2.99610882960195      1.44797284619895
  H   5.99840413656384     -4.48227987163440     -0.37744865543510
  H   6.79128169682892     -0.03638656441501     -0.13501368496833
  H   6.72334982224914      2.21822876408986      0.58693036532920
  H   4.08521050032544      3.35051846912985      1.18021359439569
