23
Coordinates from ORCA-job 13258optt
  Br  3.81149690616772     -0.91493433660365      1.60241966750367
  C   3.18136531244604     -0.03666771411139      0.06376702494936
  C   2.49713021233005      1.16606155121155      0.16324230624245
  N   2.12790786106162      1.80048942673432      1.28470048445637
  C   0.97607023640280      2.44732377030288      1.17219964375705
  C   0.65824006982983      3.69069409212577      1.83524548402059
  N   1.33348481066621      4.28680455300247      2.74768087077909
  N   -0.56017689737246      4.26740258424938      1.37605576512518
  C   -0.81254465150546      4.36186511630313      0.13964373552399
  N   -0.01881833790206      4.08188370955535     -0.96680521975199
  C   1.39692744217742      4.26367104358262     -0.99941355039112
  C   2.33033413095229      3.33380045139931     -1.14554185847525
  C   2.30199024383767      1.83781668969870     -1.13807224644471
  N   2.46891058340732      1.28539709066442     -2.28080874924095
  O   2.75626581303972     -0.06202690043893     -2.29097087787239
  C   3.27688137593639     -0.72941472298014     -1.17795522061602
  O   3.70359585696746     -1.83951469776649     -1.38883130017473
  H   0.25708739869265      2.11444277555027      0.42721963227735
  H   2.15065165435501      3.70719010411172      2.94608598923739
  H   -1.81538046844954      4.67613417147279     -0.15230992869293
  H   -0.46857023364904      4.30185900805857     -1.84231933501785
  H   1.72436683587080      5.29809797692272     -0.92573071807264
  H   3.34678384473752      3.71262425695460     -1.20050159912191
