23
Coordinates from ORCA-job 13254opt
  Br  1.04575788651675      0.64100678248992      0.06041565513962
  C   2.83057287521905      0.10882714493991      0.12829812534911
  C   3.21087861739350     -1.21522789391948      0.04256546225613
  N   2.32909672915347     -2.17741151459607     -0.17627946542784
  C   2.58783067281398     -3.47238579706811     -0.33503127623191
  C   3.71860067650060     -4.26584456710418      0.02208745820099
  N   3.91358296860344     -5.50354074400546     -0.34377316848480
  N   4.65811314238730     -3.76170797759637      0.95089357971165
  C   5.03376429758126     -2.56673902967167      0.96538157155260
  N   4.62719542081280     -1.48611057877289      0.12846868613924
  C   5.60832064725519     -0.50169858798927     -0.04409577118208
  N   6.86203416921581     -0.73764146737572     -0.12347508257258
  C   5.12349016377210      0.86385541798101     -0.03357444747330
  C   5.76396300033837      2.09330273137663     -0.05260891471947
  C   4.72830254009136      3.01334131284143      0.08554954098003
  N   3.53445709225843      2.41669763148981      0.18413030127995
  N   3.79518851920457      1.11480811129187      0.11250142912474
  H   1.76390405473166     -4.04301804033243     -0.75982792752883
  H   3.18617718223735     -5.75561039833231     -1.01264021386630
  H   5.77371389092225     -2.25221427772098      1.70229511480710
  H   7.04612882487532     -1.73843041972218     -0.14953288423640
  H   6.82305753938290      2.25395732127600     -0.14463164983639
  H   4.77786908873218      4.08978484052063      0.11788387701871
