24
Coordinates from ORCA-job 13260optt
  Br  2.77164186160887      0.56442926756262     -3.73873781349622
  C   3.33670791853174      0.66837875040957     -1.92467761816067
  C   3.64611815105947      1.91773235391734     -1.38245834961678
  N   3.32392997608783      3.09290244656671     -1.92311841116600
  C   2.66288008261934      3.95600921876404     -1.16486162491461
  C   1.86580877532833      3.66523305284491      0.00495175598816
  N   1.18392909154419      4.54082134221886      0.69069420007355
  N   1.79554851525369      2.29608420987750      0.35414752241859
  C   1.52489801426401      1.94815571233097      1.53843724792175
  N   1.59415809015542      0.62904828153528      1.97907618701213
  C   2.07462916051995     -0.49900360365102      1.28621993887152
  N   1.56920763580153     -1.63295936812681      1.58768332574123
  C   3.12990655628826     -0.19447587482711      0.30670285968099
  N   4.07399173012283      0.75525619334088      0.68355715977176
  C   4.33175916016697      1.88556062257687     -0.04512256081035
  O   5.07868869628966      2.75320062009925      0.36751782761475
  C   2.89611428388634     -0.32981310800330     -1.03621789481399
  H   2.60117577857087      4.97879695784238     -1.52838941142643
  H   1.35020026682242      5.46845085574743      0.30497672923124
  H   1.25317992871004      2.66054520124698      2.32005568609898
  H   1.04852257641025      0.39575591025504      2.79462540860075
  H   2.09412590107467     -2.36138628020387      1.11055108231009
  H   4.38841463179097      0.79470341163929      1.64182266771041
  H   2.16146321709223     -1.04642617396391     -1.37943591464083
