23
Coordinates from ORCA-job 13261optt
  Br  1.78720453141845     -1.92193034179073     -0.80254009264649
  C   2.90971849734617     -0.67658473197380      0.05481919368785
  C   2.86879609485775      0.64776592563137     -0.37096972966607
  N   2.19333245861223      1.05541221569552     -1.42625313766538
  C   1.72555790492012      2.23238489584767     -1.82256449393338
  C   1.19835672452593      3.33811622079500     -1.10936623350831
  N   0.53387778258485      4.27288287956980     -1.73007895004230
  N   1.33559178833536      3.37382583115233      0.31936711400280
  C   2.53452487989453      3.49863147549703      0.95786792993524
  N   2.76259581824479      3.93335645716829      2.13150568485126
  C   3.71580023949026      2.92336371610726      0.22158064238819
  N   4.63483763673754      3.64425999091907     -0.23690705124980
  N   3.76819568664373      1.49870717254303      0.31576262106914
  C   4.62037122992901      0.98430087991051      1.26358340040207
  N   4.69118694205185     -0.22845142266397      1.63631405060677
  C   3.79929601652970     -1.17794720583076      1.06864781227918
  O   3.84089234869415     -2.33366321619298      1.45123158387625
  H   1.56421737343796      2.32896547670707     -2.89192503085604
  H   0.27857038602286      5.01520896084401     -1.08252737394514
  H   0.54635166981867      3.77885695540546      0.80365366913663
  H   1.90315180995086      4.24329776635459      2.58569982843298
  H   5.37014354470837      3.05995127071140     -0.63772453074821
  H   5.26542863524478      1.73428882759281      1.71582309359276
