24
Coordinates from ORCA-job 13274optt
  Br  1.65953581554200     -0.54892276040783      0.79186297323863
  C   3.34084262519188      0.22795473352425      0.40777201186975
  C   3.53098461005685      1.56092568015048      0.49749684973018
  N   2.52620233114704      2.42980380938486      0.93709367699224
  C   1.95963417401912      3.13881527328981      0.06868325469234
  C   1.15272715746419      4.28130964311405      0.57654710990148
  N   -0.07377535754240      4.49457701578314      0.35979390252194
  O   1.84665617484314      5.06390944298191      1.40471603599561
  C   3.15065799264304      5.51236071201438      1.07606952945091
  C   3.21238831606435      6.92806743140484      1.29025751687983
  O   4.19747479787355      7.65696144389596      1.16126364288694
  C   4.31459564540676      4.85593450846428      0.65942650908440
  C   4.96518016920998      3.65453387205873      0.31745116162787
  C   4.76467553693817      2.25911889736458      0.22380436677526
  C   5.88437802028848      1.43880861669723     -0.16199435366729
  C   5.90816047362620      0.10351675631292     -0.29926932164404
  S   4.54299729430547     -0.96784053786967     -0.04258918894488
  H   2.09840040930866      3.00837955149716     -1.00889285464990
  H   -0.44718808064527      3.75230132858250     -0.22849493050188
  H   2.24593901280674      7.35558015649083      1.61394168298134
  H   5.02486415571407      5.67474976521234      0.56300068772458
  H   5.99218367313611      3.88223903570449      0.04475754859798
  H   6.81572793756423      1.96022847436414     -0.35969602209802
  H   6.80775711503759     -0.42131285001543     -0.58900178944529
