24
Coordinates from ORCA-job 13272optt
  Br  3.41102490650493      2.80543873590492      3.38802825870132
  C   3.03700123037802      2.23446645967724      1.47745676282791
  C   4.22859883479653      2.34715867497928      0.59590725805385
  N   3.95420495871190      3.40666983058271     -0.06642443715770
  C   2.61626175613601      3.48931360725917      0.61410618595269
  C   1.57575588643337      3.13204485178574     -0.44236435810641
  N   1.66207751774926      3.37507519091114     -1.67098734889370
  O   0.49470638529092      2.48834785049200      0.07456077301125
  C   -0.04378871435862      1.40423341636051     -0.60753963998493
  C   0.54647398685372      0.24600605661468     -0.92192720765501
  C   1.93876241136890     -0.25776326128640     -0.84607758329056
  N   2.26774238341636     -1.15169464701624     -1.76162820369430
  C   2.78798574494267      0.28769134995390      0.14582976249516
  O   4.18229312202167      0.14968104839021     -0.10822054387672
  C   5.02945614610481      1.15643788967426      0.22426767743556
  N   6.28481967350744      1.07327799716942      0.19153285381443
  C   2.37344782095196      0.96715291624826      1.28834866710752
  H   2.39658328828168      4.42436485622404      1.12862079819991
  H   2.55763207544575      3.81820966321029     -1.86621559104508
  H   -1.09061861627945      1.56068737841630     -0.83139768255745
  H   -0.10815517403899     -0.43461535366089     -1.45699949961211
  H   3.24650863111871     -1.40465799360860     -1.63061853278331
  H   6.55402312272695      0.13342660184828     -0.10140763649920
  H   1.33820262193546      0.87404687986978      1.57714926755687
