24
Coordinates from ORCA-job 13287optt
  Br  1.39301547173904      0.31407818647027     -0.98988205263731
  C   2.90463552414495      0.08629944157210      0.33855771114656
  C   3.58971744316010     -1.12235051867733      0.31785365002146
  N   5.01602750846547     -1.08635727979817      0.31265081638216
  C   5.60952809184535      0.04425266714280     -0.23848255695926
  C   4.91550906760844      1.17963930083660     -0.22747023085988
  O   3.67936820447856      1.24935396164003      0.36162525898714
  C   5.47890273031089     -2.38295339680443      0.22673595396429
  N   6.86612816931325     -2.53482360982062      0.19851278694601
  C   7.55130178270121     -3.71539236718349      0.04163576851197
  N   6.98226918172959     -4.84828384902843     -0.33359329851775
  N   8.00197574653300     -5.72730628753521     -0.40916599043612
  C   9.18955338891134     -5.18758331108635     -0.08385668289265
  C   8.95370414648601     -3.87228837900087      0.22038460358805
  C   4.44837447278467     -3.26482180873313      0.21182346911532
  C   3.18620001439091     -2.50715537819969      0.26716828326540
  O   2.04080496879827     -2.98157088425483      0.29803968227026
  H   6.58410667000300     -0.04696315686571     -0.69617317400639
  H   5.26625814287524      2.10903896045952     -0.65056449564309
  H   7.37792833971513     -1.80886477298267      0.67263240221296
  H   7.80283353908655     -6.67360090783823     -0.67516461442291
  H   10.09845798272439     -5.76580013487465     -0.09211193256277
  H   9.67021099031519     -3.12681231295549      0.51882277199661
  H   4.52618842187932     -4.33673416248198      0.20502187052995
