21
Coordinates from ORCA-job 13288optt
  Br  1.06729731606398      0.21069844280020      0.08746564588019
  C   2.90923811805827      0.03628912297835      0.33167462421906
  C   3.60022413218950     -1.09799923951006      0.25349933681036
  N   5.00385234353527     -1.04377872101867      0.37377414117845
  C   5.57728385894619      0.17585583489419      0.00940849881563
  C   4.83912154115400      1.27614671850188      0.09090859288002
  O   3.54089491664890      1.23899187744210      0.59206005760396
  C   5.47636433397649     -2.34252920959449      0.06890021009227
  N   4.46888565879059     -3.19125378799135     -0.14558204147519
  C   3.28178000099957     -2.51626399133272     -0.05144714744992
  N   2.07965685741874     -2.96252483619811     -0.17618545757574
  C   6.83191469797729     -2.68780810771782      0.06580504436236
  C   7.36915570594132     -3.94041635522009     -0.28352373979988
  C   8.75030129714615     -3.95507023542804     -0.12540478697731
  N   9.34965477216030     -2.85154947476555      0.30854061420593
  S   8.18014719193829     -1.69630835504161      0.56392763668267
  H   6.58698194644798      0.18132899347975     -0.37213310546859
  H   5.16462955752447      2.26164084937372     -0.19845661100115
  H   2.14235978798573     -3.95997160304075     -0.37689152789646
  H   6.75761062871072     -4.76244928980434     -0.62041197943519
  H   9.37564533638617     -4.81502863280656     -0.33992800565147
