26
Coordinates from ORCA-job 13284optt
  Br  1.23964198903033      0.23687154590171      0.64802041454802
  C   2.89981553856575      0.00036655525018     -0.30949467509562
  C   3.63697076473714     -1.17394938261340     -0.12801023080386
  N   5.04065867183243     -1.12033486173613     -0.24134921212137
  C   5.66925477179138      0.10848242071925     -0.34068316706383
  C   4.93022466285808      1.21857460168895     -0.38337658111084
  O   3.56956206054387      1.23307689030590     -0.37368981566961
  C   5.56496669335909     -2.38359171527149     -0.14814913691261
  C   7.03831852420483     -2.62250317930067     -0.18467708830700
  C   7.67018052011582     -2.39428331852604      1.17726703896043
  O   9.07345374255048     -2.62412221719340      1.08049314761430
  C   9.70564896482910     -2.47093731988477      2.31101241187619
  C   11.14473873152733     -2.72673186149789      2.15886407435295
  N   12.27012604794615     -2.92046489306606      2.07653035556015
  C   4.54149219510301     -3.27006330869965      0.03252526060285
  C   3.26164060416675     -2.55700963572289      0.04522192501981
  O   2.12155216572697     -3.04813274706528      0.16527790360239
  H   6.74714894087921      0.14248199281178     -0.38331885302617
  H   5.35892416701998      2.20588138218251     -0.45802640629988
  H   7.53280934280596     -1.97713126355696     -0.91570466895436
  H   7.22519633017373     -3.65425672522743     -0.48480932112074
  H   7.23146752666722     -3.08252950282576      1.90876286277163
  H   7.48873932354660     -1.36946285324915      1.52473338535093
  H   9.31309566569316     -3.17318004553835      3.05782284121343
  H   9.58021327601076     -1.45615133098136      2.71048840554871
  H   4.64515877831466     -4.34089922690354      0.11926912946403
