26
Coordinates from ORCA-job 13283optt
  Br  4.59121509643380     -3.06821414185212      4.13196719577865
  C   5.17618352875605     -2.04248900181267      2.64455275776371
  C   5.93155730148181     -2.51941642870357      1.65177630845990
  N   6.10499057615989     -1.56953328893465      0.56630009678490
  C   6.51626577022371     -0.26238333104128      1.14947298291116
  C   5.71100660413508      0.14898651566577      2.14414480464302
  O   4.78770719136348     -0.75936887494254      2.70589999422174
  C   7.82566341568038      0.18343719612014      0.74221738569818
  C   8.87661676540119      0.23865620275347      1.72413133727361
  C   9.48699881746271     -0.99496911391846      2.08233447970499
  C   8.89807121664912     -2.17774683495470      1.54734142070521
  C   8.83757875675139     -3.32082193530860      2.29427529602120
  C   9.66743847805676     -3.41284224456127      3.43102709460211
  C   10.43607887219132     -2.29247555448092      3.73082445158000
  N   10.35245571209039     -1.10943854935662      3.13004520837331
  C   7.76064006594119     -4.27103547925892      1.95664080455866
  C   6.50978055987578     -3.89801597938549      1.64762531656625
  H   5.19955015328613     -1.44222104036989      0.12068703111901
  H   5.78741093893067      1.05937122065735      2.71582537476892
  H   8.10516164602204     -0.33713467000908     -0.16967937734208
  H   8.90602739954950      0.99280838624025      2.50527541630933
  H   8.28419862652367     -2.12038617018817      0.66700262825279
  H   9.67974942325362     -4.28572725301501      4.07044237764095
  H   11.13474711176698     -2.34258257258120      4.56395566690879
  H   7.97122944810824     -5.33671766199675      2.00328724426312
  H   5.79467652390499     -4.69173939476503      1.44162670243251
