23
Coordinates from ORCA-job 13294optt
  Br  1.27625080725057      0.60777652360299      0.81431738983256
  C   2.94878416858202      0.05608270569356     -0.60775888185153
  C   3.60515713971408     -1.11865921323031     -0.41995198673598
  N   5.03392888703445     -1.14352873088534     -0.23809586133682
  C   5.62770593504394      0.05970320054485      0.12441279495131
  C   4.95345262953578      1.18213357051084     -0.10229123545779
  O   3.72747767471647      1.19722604991697     -0.71800490833623
  C   5.48806197734538     -2.39823941520025      0.05012818494333
  N   6.65198383556019     -2.82202457607206      0.36819889757890
  N   4.35789535950648     -3.21933087554511     -0.03429219531854
  C   3.15247169255884     -2.48219832797728     -0.30748240245570
  N   1.98336916225275     -2.96069940520529     -0.44649801596584
  C   4.42787249684247     -4.60076465384588     -0.03291531208369
  N   5.23757267564682     -5.27490447386310     -0.82467177416099
  N   4.97627528354036     -6.54485275037921     -0.48487069183887
  C   4.02201216080454     -6.59310749453469      0.45616282419314
  N   3.64794446587447     -5.37891737253407      0.77222823204738
  H   6.58851591068260      0.03893979277941      0.61613291800589
  H   5.31392012009066      2.16046851395652      0.17687861392926
  H   7.32144959532368     -2.05974641529691      0.35260633661328
  H   1.97011751640871     -3.95937566836430     -0.25740584392070
  H   5.48394586395172     -7.29518816462983     -0.91933937276393
  H   3.64283464173283     -7.51279281944139      0.87151229013155
