25
Coordinates from ORCA-job 13307optt
  Br  1.58988631471934      0.09450740273106     -1.42032984667788
  C   2.85914914997971     -0.01257714700680      0.08345404926929
  C   3.57558568294493     -1.18821678157886      0.24986637608473
  N   4.93998490242677     -1.10782191361216      0.44671608483721
  C   5.64125950586165      0.03531988156902      0.10460190451901
  C   4.93492285498354      1.15778790395417     -0.08209888547389
  O   3.58564859340772      1.17968931880845      0.21634242900769
  N   5.52952688990561      2.33110267908821     -0.48424861955351
  C   4.87668662906571      3.36087821431257     -0.80314906117960
  C   3.39545511411698      3.66919345873296     -0.90228632432377
  C   3.36977699422536      4.96903401352627     -1.70468253586427
  C   4.71931338206882      5.57901041149112     -1.34916349262107
  O   5.59111943866570      4.47124420789019     -1.16122600426751
  N   5.48670847106485     -2.32128757810442      0.62018655293330
  N   4.55030116648467     -3.19710864647996      0.57846391166244
  C   3.30163911766029     -2.59449280539059      0.33285193839184
  N   2.15787190318728     -3.20700089687466      0.22678071012983
  H   6.70291209919449     -0.03919030590446     -0.05767709250304
  H   2.99658791476548      3.80215446470571      0.10531288418986
  H   2.84716098551954      2.84674730893027     -1.35215175184059
  H   2.53510079081701      5.61967295485180     -1.44977526053577
  H   3.32753947735845      4.75285852075577     -2.77287063182502
  H   4.66631844993199      6.15310842211753     -0.41796180779839
  H   5.14467713220915      6.20992487440883     -2.12791541453642
  H   2.33086703943472     -4.20253796292210      0.35895988797553
