25
Coordinates from ORCA-job 13306optt
  Br  1.30659324743037      0.39543755976841     -0.64636116250914
  C   3.11824858654567      0.10286618167818     -0.18813025875770
  C   3.67720931820934     -1.16369102165272     -0.13961378291408
  N   5.06650511448151     -1.25163415690118     -0.22583629532829
  C   5.84598649063317     -0.10667216582261     -0.16470383808121
  C   5.24281367726445      1.05638279589062     -0.40705534221903
  O   3.91454390902032      1.15054523101189     -0.73104378695109
  N   5.84691302755560      2.31781412079417     -0.44293166298716
  C   5.19471786262500      3.46334514434404      0.17674340151409
  C   6.13496498048634      4.60102855953616     -0.22224078512529
  N   7.40311888083672      3.89684451890247     -0.31693315139244
  C   7.17905156885359      2.56234425981206     -0.66330139953383
  O   8.02514450347230      1.79575868349652     -1.06209146514779
  N   5.53645401022394     -2.48017623261615      0.09640400052537
  C   4.46507015402287     -3.21303725071539      0.28859562671765
  C   3.21527875132181     -2.48940286600171      0.16719095301559
  N   1.96417897079168     -2.88894650378446      0.31244092134058
  H   6.89622241242652     -0.20982835995931      0.04895396442660
  H   5.15700608643293      3.33372638189444      1.26366118866901
  H   4.18344869441229      3.58263497126209     -0.20181667447715
  H   6.16572651120804      5.39201034732198      0.52527163500820
  H   5.83098099705890      5.02715326256597     -1.18404415385056
  H   8.18486085732306      4.31991458306295     -0.79077294970553
  H   4.56879464102380     -4.26368592556811      0.52208779841550
  H   1.97116674633967     -3.88673211832030      0.52052721934770
