23
Coordinates from ORCA-job 13314optt
  Br  7.60415536313499      1.99675983776965     -0.21654405354960
  C   6.39463391691161      2.32456346752778      1.18260755624515
  C   6.73656376269760      2.66293259771804      2.57397321369601
  N   6.19683566856556      1.33007302642270      2.21104211284921
  C   5.32899993227997      2.32003430979291      2.89559095796446
  C   4.51170486343119      3.05392106008337      1.90965064846284
  O   5.15097206894913      2.87676385871683      0.72825999728489
  N   3.54331477246020      3.84786585142608      2.07923907312654
  C   3.31060047081313      4.13151763021944      3.44652474301494
  N   2.23295655078135      3.91571592836016      4.08991335552110
  N   4.41937715468323      4.68267990968459      4.06335627648981
  C   5.35569591190937      5.48008572953419      3.34175327987328
  C   6.68511949489621      5.36306757734564      3.35089018382142
  C   7.64178571171325      4.43497193860440      4.03226128212674
  N   8.44488526141736      4.90664963870824      4.95667007657627
  C   7.82277671217052      3.09798643994561      3.50531451566429
  O   8.74344781357313      2.31033499189683      3.78360979552925
  H   5.02268766063521      2.11050013177622      3.90631640133454
  H   1.57807828726696      3.43118612907209      3.48327115723612
  H   4.29121079923689      4.88402926246754      5.04407364187130
  H   4.90952115966850      6.25690763522754      2.72662841067832
  H   7.19329511082833      6.14449931587410      2.78649627320862
  H   8.19538155197622      5.87695373182596      5.14810110097445
