22
Coordinates from ORCA-job 13315optt
  Br  1.12420441929498      1.26863744567762     -2.44675053314020
  C   2.99508252624863      1.40388793945550     -2.10897544741645
  C   3.51074270963062      1.99992625152397     -1.01814949262213
  N   4.87644542653283      1.94497071317866     -0.78513983924400
  C   5.45334714708959      0.87016994472192     -1.30226794137868
  C   4.72741757801313     -0.02072806919807     -2.12354790639236
  O   3.77362337176011      0.66227633982382     -2.93366467309646
  N   4.67507727694377     -1.32371253949616     -2.14189374969963
  C   4.99039049470437     -2.04965791673437     -1.03979417339888
  N   5.64470945369963     -3.13571883420906     -1.02596170271275
  O   4.47600354903912     -1.60666694814556      0.22255531783121
  C   3.56074086529202     -0.61159338378629      0.27624400976682
  C   3.49997141056519      0.26037730694266      1.28486698682570
  C   2.69869895934512      1.48875648849174      1.23605946212522
  C   2.67658680045263      2.32380081858784      0.17694747654362
  C   1.87522217793294      3.51191301383939      0.22287101400876
  N   1.24006022249319      4.46998324277457      0.26056692494352
  H   6.45248784797822      0.60431180085211     -0.97432385298954
  H   5.63044167543530     -3.51997169557125     -0.08524968334884
  H   2.86968304232861     -0.56485886005079     -0.55610760207818
  H   4.16954496724727      0.13451222919160      2.12936052163971
  H   2.15651807797261      1.78838471213015      2.12835488383355
