22
Coordinates from ORCA-job 13311optt
  Br  3.82872368978588      4.15711140755549      2.66062189879905
  C   4.72910320583703      3.14479124792185      1.35391419447079
  C   5.99425542106766      2.75195973232596      1.45024215830577
  N   6.58919697179754      2.12524157576717      0.35521671613628
  C   6.07939903928169      2.57242661701049     -0.92723907519898
  C   4.79400695625483      2.95195590987644     -0.94513697942327
  O   4.02009900584273      2.92003423289355      0.22156733204690
  N   6.89830404294993      2.57855719479098     -2.01417034327512
  C   8.19628336987248      2.83042142432912     -1.91563923104062
  C   8.98195276434812      3.33364850443135     -0.84824090192324
  N   10.30580082002943      3.29795029726019     -0.74342892175366
  C   8.29505890807139      3.92896887179629      0.33501994890088
  O   7.42695608758561      4.76262566704997      0.31421385601633
  N   8.79620546518655      3.41931933545414      1.55886697761263
  C   8.09277976581298      3.02547089350944      2.65703330349310
  O   8.61040238126795      2.69018739561100      3.69049982872451
  O   6.72841932951286      2.98920394601393      2.58510076857419
  H   6.71947261177998      1.12268240643463      0.42262372588799
  H   10.69795139083293      2.86228361184376     -1.57770349795700
  H   9.75337253075132      3.09162935950731      1.51268169011460
  H   8.77319311759618      2.59162119045149     -2.81120175895916
  H   4.28006312453480      3.36290917816539     -1.79784168955196
