21
Coordinates from ORCA-job 13317optt
  Br  4.99227443825433     -1.66608448417152     -3.54924185511716
  C   5.77723573277136     -0.28292623679781     -2.55690266548775
  C   5.89843052547754      0.97438275338793     -2.96654654273306
  N   6.54236986029903      1.84295283513321     -2.03911701779655
  C   7.64895378422696      1.25461657607553     -1.43786643952328
  C   7.58356877615243     -0.05185222055828     -1.17430495012280
  O   6.34776051030738     -0.68134680436150     -1.36419299026254
  S   8.99212471946736     -1.00876562501230     -0.80652718674614
  C   9.88697671725759     -1.07329503731559     -2.38472091993606
  O   11.02222734872232     -1.44801864005536     -2.38457878463311
  C   9.14307915941586     -0.68571297845857     -3.64699469548076
  N   8.22635980922584     -1.45554689194810     -4.02419003224320
  S   9.66388259595445      0.83325343782087     -4.49808403506444
  C   8.19417241159536      1.78718360157643     -4.44512833391903
  N   7.04366030484213      1.42722434164436     -5.02052300382081
  C   5.83029917705142      1.37080951902036     -4.44273833153776
  O   4.75104654405407      1.47233950749910     -5.00642493803942
  H   6.68648855047258      2.77664486194366     -2.38409961929652
  H   8.54733791232658      1.83413474196328     -1.28138740743358
  H   7.80930510233676     -1.12679782192049     -4.90063278610384
  H   8.29244601978849      2.66380456453479     -3.81079746470213
