24
Coordinates from ORCA-job 13325optt
  Br  1.01595527582673      0.16660644966169     -0.61601466899215
  C   2.87131231415191      0.04303554855688     -0.04488954841914
  C   3.52756279844976      1.24385877053683      0.01055431813575
  N   2.92701153103621      2.48886420063465     -0.22664034171631
  C   3.62450358625227      3.63966592202013      0.30514706096168
  C   5.07782212677763      3.53715885566826     -0.11243484395972
  O   5.66042035013490      2.38001262667038      0.44154859223468
  C   4.95549746728053      1.21530058586193      0.17035059435749
  C   5.62947861522815      0.03577172565447      0.06020859850410
  C   4.96651627558021     -1.19746474611779     -0.05158453795121
  C   3.52026610356280     -1.23361318257106      0.03148519089545
  C   2.84076633127871     -2.47456000966413      0.27374132117598
  N   1.64820594792636     -2.73801199900930      0.68216539096961
  S   3.74580059917415     -3.98768907421018     -0.07138919744495
  N   5.36880211699048     -3.60385480511823     -0.25480783204039
  C   5.75685984949193     -2.36976569693623     -0.19268722116133
  H   1.92863048790239      2.48185263617435     -0.08060008378119
  H   3.58210644803480      3.69865150866156      1.40245208949223
  H   3.18160728192897      4.54772453611313     -0.10837907206191
  H   5.65445776099341      4.38472715969904      0.25851568273497
  H   5.13964769037107      3.50389726353956     -1.20727729698496
  H   6.71367754065630      0.05668031075116      0.08594681909517
  H   1.12955291752271     -1.88678382827358      0.87146582210122
  H   6.83553858344752     -2.21906475830351     -0.25687683614507
