23
Coordinates from ORCA-job 13328optt
  Br  1.02675534097465     -0.04762638283245      0.11266080430274
  C   2.90745218711965     -0.17639313454131      0.01544668175987
  C   3.57115083860831     -1.33717899493591      0.09176555722246
  N   3.03377104773016     -2.61852676946624      0.27869476988086
  C   4.10867286409797     -3.57519715334315      0.04354424274630
  C   5.39121011112076     -2.73903238317692     -0.01000379680405
  O   6.49354032929902     -3.29877380282511     -0.08487576614733
  C   5.00977941935780     -1.35729551639193      0.00866148095764
  C   5.73428727029301     -0.13184646729801     -0.07874015300107
  C   7.18582233065774     -0.03120661534184     -0.05376382014268
  C   8.13297189330928     -0.97850877003486      0.20792043512657
  O   9.36554008546285     -0.45377364376729      0.15144781783162
  N   9.27119260921963      0.88344914118186     -0.15369340865173
  C   8.00214696387506      1.13272094728733     -0.27233628965920
  C   4.99647891090908      1.10444783373144     -0.18020763343390
  O   5.46632702310859      2.24360829985027     -0.29844299231687
  N   3.60642770840182      1.00578621803590     -0.14529177351103
  H   2.17563510917561     -2.77970799588879     -0.22811789480126
  H   3.99791364756975     -4.10845982136484     -0.90767307522092
  H   4.18032918736221     -4.31759134099754      0.84153877038648
  H   8.05615781725120     -2.03185867791418      0.41059556282222
  H   7.66557910015791      2.12673134248559     -0.50688568794692
  H   3.11985820493786      1.88323368754799     -0.22124383139978
