19
Coordinates from ORCA-job 13321optt
  Br  1.24391515275320      0.07751738351903     -0.49677010687187
  C   3.09115363489968      0.16448622841752     -0.18976538548350
  C   3.78098624006751      1.28333165846920      0.02229949925580
  N   3.27936501003867      2.59261322897330      0.09015581141925
  C   4.32213555730132      3.32628358542893      0.29703701765168
  C   5.62143154323065      2.59640032833385      0.39678854105725
  O   6.71058145936790      3.11557862984702      0.67790418437673
  C   5.22693846121308      1.23142069375971      0.17259151277306
  C   5.85837419653373     -0.01273781458743      0.11820973978714
  C   7.25343691065653     -0.27509759707592     -0.12975717647759
  Br  8.24653171412814      1.02150537585857     -1.12152809151533
  C   7.88247340492295     -1.43382793078528      0.12591839450671
  S   7.06864557932791     -2.72972667196353      0.98275452026761
  C   5.43023141292322     -2.42702971447831      0.43460865546169
  Br  4.31502319350329     -3.94258180291795      0.21694744886569
  C   4.99991395007594     -1.18491780709267      0.13870683982306
  O   3.66633531045554     -1.05744589737254     -0.20822596671186
  H   4.24526271369345      4.40301256870481      0.40941704922730
  H   8.88526455490723     -1.63678444503832     -0.22029248741281
