24
Coordinates from ORCA-job 13336optt
  Br  1.04446012147119     -0.13024895732972     -0.11859681076101
  C   2.93997719188148     -0.13118139974301     -0.01083075005312
  C   3.58429132191627     -1.32786175418027     -0.15242786596360
  N   3.02764923663586     -2.56794322601313     -0.40541668435421
  C   4.06276436108342     -3.58918501572861     -0.30626433445952
  C   5.37087181301849     -2.78911829053595     -0.23228305929470
  O   6.48775146218738     -3.33112408193997     -0.28368748918593
  C   5.00180616024326     -1.42112953239618     -0.09734349045862
  C   5.77712605406589     -0.23638204880917      0.05907717971745
  C   7.26522776889015     -0.33621402501053      0.05987356367002
  O   7.80786937579356     -0.15078807839653      1.39314305577903
  C   8.87043041936159      0.64221427026173      1.52359968353947
  N   9.53889125637493      0.79114475546110      2.58348138763640
  C   5.09042083457308      0.97109262710502      0.19755353209751
  Br  6.13443925565801      2.55283535382420      0.43117075433924
  C   3.70263005465094      1.06689425983417      0.17948623584975
  Br  2.80408088822356      2.70664781798535      0.44111202156136
  H   2.10695963448842     -2.74523825746580     -0.03687488287024
  H   4.06620133419427     -4.25241882492575     -1.17508272051397
  H   3.95706458413824     -4.20571721226886      0.59471601488250
  H   7.71256338767367      0.41684570914313     -0.59387202474506
  H   7.55483827988251     -1.33348585648121     -0.26511178923491
  H   9.14445307842488      1.19587925378920      0.62414540066590
  H   9.14823212516886      0.20148251382082      3.31943307215626
