28
Coordinates from ORCA-job 13330optt
  Br  1.10357242528925     -0.19716313235294     -0.87511700997442
  C   2.89168416252012     -0.13457526446251     -0.21444199097352
  C   3.51854762274004      1.07315683733641     -0.10781704102329
  N   3.01257832855702      2.34269365119726     -0.37498644158921
  C   4.11348915512863      3.30486639224204     -0.32536842125771
  C   5.28630586829115      2.51397419708326      0.27866460076373
  O   6.37377969061808      3.03976845482575      0.58140448809490
  C   4.86162977670105      1.16381226604672      0.35745775237051
  C   5.53199197004404     -0.02319185139982      0.75159474139987
  C   4.87580161274858     -1.23612567015087      0.63729034862873
  C   3.57138858460144     -1.33776457465322      0.15246325382055
  N   2.93039019528945     -2.60108231292804      0.08096948211878
  C   1.99154719112987     -3.01918383569657      1.11199159611833
  C   1.57920297392849     -4.40293192325637      0.61645648770854
  N   1.69034926342979     -4.23050371588379     -0.82707368101874
  C   2.67954696889533     -3.26348125636189     -1.09757002570930
  N   3.25092572733717     -3.02223576431356     -2.20959955442021
  H   2.35813825442549      2.40125819761720     -1.13997793469573
  H   3.86526995937555      4.17210772762553      0.29338725355349
  H   4.39138119019404      3.67008318943422     -1.32304151473262
  H   6.55189163429159      0.03182615588445      1.10755070758223
  H   5.37607242988682     -2.15921296942777      0.90910017513942
  H   1.13253640260314     -2.34048609525902      1.15907917948146
  H   2.47902477335427     -3.04346076270085      2.08604588597174
  H   0.56465997386834     -4.67127123943901      0.90979441249437
  H   2.27414411982103     -5.16260381867971      0.99308719330803
  H   1.78450695610583     -5.06930114158822     -1.37821482274720
  H   2.88964278882432     -3.63897174073867     -2.93112912041276
