26
Coordinates from ORCA-job 13332optt
  Br  1.11337603026900     -0.01424313674470      0.30808081981851
  C   3.06043806644942     -0.10730980164886      0.14758984475000
  C   3.64219465186063     -1.33598083839804      0.28451626913444
  N   2.95552353898761     -2.54594804485123      0.49643681606266
  C   3.63346255744521     -3.70946384944324     -0.04041536057087
  C   5.08493215987479     -3.68347002514019      0.44969070772311
  O   5.74485596406766     -2.54622550294199     -0.04086559334306
  C   5.07415769045225     -1.36500685027561      0.33044281855968
  C   5.74751348362974     -0.13774407247702      0.15886772319165
  C   5.02548487116909      1.02583087285869      0.05593948163139
  C   5.71594398212875      2.34442952020318     -0.04853915602667
  O   5.68802077816409      2.84837730242191     -1.42047456286274
  C   6.77588006110053      2.70526322191842     -2.14818337752673
  O   7.84400530767841      2.28172520155728     -1.79769733414217
  N   3.66005983442039      1.08586274926570      0.05737411424379
  C   5.80633334938921     -4.88175824272310      0.01419703471083
  C   6.36120570779215     -5.88974668965110     -0.32146020287213
  H   1.98209089367701     -2.48331515309918      0.23278001595268
  H   3.66045212059429     -3.73152009572773     -1.13913633073392
  H   3.14467842527345     -4.61592306333217      0.31979232816313
  H   5.06576505541569     -3.64793434271977      1.54995570570319
  H   6.83029499858811     -0.11547020338496      0.12606299710253
  H   6.75439687812617      2.28776010331948      0.26798077685968
  H   5.17394201522802      3.10111621764359      0.51649707006911
  H   6.57797768967651      3.05740791335205     -3.17105504130534
  H   6.86801388854173     -6.77271318998139     -0.62637756429274
