23
Coordinates from ORCA-job 13338optt
  Br  1.26872853078521     -0.33063966754720     -1.62546696317026
  C   3.18734027986981      0.00650431993525     -0.01602956900532
  C   3.71580489732043     -1.20944886949596      0.29147630719412
  N   2.92649035704729     -2.37690233566185      0.46360847190251
  C   3.63051012612972     -3.52010829338185     -0.07365024550387
  C   4.93268317251947     -3.65725232964232      0.70626060248025
  O   5.73749504297845     -2.48396616789617      0.61479127945829
  C   5.12057140084284     -1.29363077702301      0.36430927261826
  C   5.91991620847385     -0.20180886749812      0.16148558425652
  C   5.34712112728635      1.06386144835890     -0.14544907415697
  O   5.91531114273003      2.10770919215171     -0.36035061220290
  O   3.94079841606391      1.07486462525231     -0.19673343920181
  C   5.77245765587008     -4.76385440959019      0.15781933191882
  N   5.77269345025222     -5.97056997147057      0.62414451853327
  O   6.61225360219477     -6.68136813994556     -0.16377833217998
  N   7.15127753876996     -5.90740885157560     -1.13074093443441
  C   6.65543823817027     -4.72613193201225     -0.96099824684658
  H   2.03731405012707     -2.21945441400171     -0.00828862322695
  H   3.86553639330367     -3.41523650932730     -1.14503280419486
  H   3.04880599674368     -4.43102804349127      0.06916187721369
  H   4.69851227425898     -3.85283730601426      1.75475727369742
  H   6.99475194531888     -0.27881303574671      0.20472124045538
  H   6.92018815294274     -3.89447966437611     -1.59201691560461
