22
Coordinates from ORCA-job 13347optt
  Br  1.08822587055911     -0.22889289042790      0.24146197197093
  C   2.96894497481970     -0.27345655225806      0.05590085556198
  C   3.68353572504300     -1.40282763965245     -0.04846685536012
  N   3.26233811530967     -2.74190397790154     -0.11305120915727
  C   4.46345371752457     -3.57891018552619     -0.11583066261848
  C   5.66448115555911     -2.58587216509891     -0.21471268348092
  O   6.82327197828568     -2.96825451563980     -0.32947671608133
  C   5.10505806828506     -1.26478710139817     -0.15072428551534
  N   5.76600699765412     -0.09586628188489     -0.17771127179536
  C   5.04972118941407      1.04457455350088     -0.07779309121343
  O   5.50132542215273      2.18527876425643     -0.09309488937293
  N   3.63830061898536      0.93282204067880      0.06556179943893
  C   4.57617604266432     -4.43218423176958      1.10416072967718
  N   4.05966791948764     -4.08489648229282      2.26775305199197
  N   4.43480860240857     -5.09419428108534      3.07188091059617
  C   5.14350888603732     -5.99691355629008      2.37785328054352
  N   5.24622753343917     -5.62091434290620      1.12803779065285
  H   2.60916360350643     -2.98436703716383      0.62104930276891
  H   4.49246365739617     -4.24058556201273     -0.98510897804098
  H   3.13797626662968      1.80236556445537      0.12800737418953
  H   4.18540627605036     -5.08516561574755      4.04511993914466
  H   5.54993737878810     -6.89404850383543      2.81718363609953
