24
Coordinates from ORCA-job 13341optt
  Br  0.96527481686316     -0.11230612163677     -0.35302329661291
  C   2.84572802858958     -0.02265819351460     -0.11147914109349
  C   3.56197473557052      1.14440681808715     -0.02967815210018
  N   3.16676406893265      2.50128240536846     -0.02433855481270
  C   4.34042288574325      3.37242554142939     -0.07690132660366
  C   5.52667437089422      2.41900201082273     -0.01550856468307
  O   6.68982617001528      2.80524781180909     -0.01675474921555
  C   4.98924880739570      1.09170573018928      0.01369781896382
  N   5.70872509139824     -0.06418547891283      0.03460686097633
  C   4.99703421031969     -1.15748644926841     -0.00224581712380
  C   3.58842242899638     -1.23989463294536     -0.08357489994711
  C   3.17103150213069     -2.61960851733949     -0.12671966568974
  O   2.04460354246355     -3.09436539517347     -0.18738483534299
  C   4.43106724491637     -3.49437937684928     -0.08760259342464
  C   5.61752449655905     -2.53476600868298      0.03308474072462
  C   1.95454192626145      3.05418040465599      0.23523159968284
  O   1.77946726336338      4.25629927130096      0.29383335040132
  H   4.33175846234381      4.06708888839032      0.76397230963000
  H   4.35259724507938      3.96059338528943     -0.99705253520015
  H   4.45793294718606     -4.09537039286555     -0.99870225596099
  H   4.34716026428557     -4.18882031593020      0.74995100665323
  H   6.34089471178143     -2.63567294645128     -0.77688398521870
  H   6.16719057573671     -2.65890122633693      0.96769395220525
  H   1.15213420317378      2.33218278856433      0.39377873379229
