25
Coordinates from ORCA-job 13349optt
  Br  1.01069586863799     -0.11115915161698     -0.44792786786217
  C   2.88036467534482     -0.04580914418017     -0.17112329560133
  C   3.57034876566158      1.19606816979699     -0.06625529219579
  N   4.99619612010212      1.13582039110690     -0.08792640149373
  C   5.73856686854646      2.35921462025010      0.10411601303621
  C   4.99354409136347      3.46161848372212     -0.60846120996918
  O   3.73640570039177      3.62226802265026     -0.01593973583804
  C   2.93775395708500      2.47021588015473      0.11413264415712
  O   1.76865143481316      2.68448039640256      0.38074728590174
  C   5.62257671411688     -0.06664140066125     -0.04629838651778
  C   4.96890154120582     -1.24574040546973     -0.06223768735575
  C   5.89770211819188     -2.41623153943669     -0.05364728354290
  C   7.26938377294203     -1.76226482701637      0.00352360171520
  O   8.33136437880822     -2.32460840221279      0.04916323310729
  C   7.11212095285376     -0.23847142623106     -0.01020025810408
  C   3.51295325070827     -1.32416420303653     -0.16793956734293
  O   2.95587026206540     -2.42963026793720     -0.26646137845387
  H   6.74437265010640      2.24198800243472     -0.29839507766202
  H   5.81007479740425      2.61515664647062      1.16985464220113
  H   4.89518308845139      3.20852525477391     -1.67167238430917
  H   5.51725257544719      4.41404547833081     -0.51636366969639
  H   5.81801979930966     -3.04318851383619     -0.94782091338986
  H   5.75870449033993     -3.08826951231720      0.79847774904144
  H   7.62597144690596      0.16841579342481     -0.88654529114704
  H   7.59302067919649      0.19136165443362      0.87320053132191
