22
Coordinates from ORCA-job 13356optt
  Br  1.10598053925569     -0.03944043845345      0.05898340578267
  C   2.99427995171251     -0.06310465444741      0.06364867849324
  C   3.68760543955587     -1.30763457250267      0.06560807294356
  N   3.04644499109109     -2.48843614969856      0.06575737803984
  C   3.74633640427979     -3.59744352651050      0.06736520898977
  C   5.18823922576700     -3.71893602127550      0.06881978310728
  O   5.78241308448125     -4.81545478368026      0.06995343854984
  C   5.83808947190677     -2.44156292836060      0.06867173403660
  C   5.10572032109320     -1.27570851700829      0.06728054838807
  N   5.77649531949119     -0.02627726725072      0.06735734562841
  C   5.06038046911188      1.15255760677572      0.06625448576229
  C   3.69001844212398      1.14308159166777      0.06426678155821
  C   7.14888680865324     -0.06540063657545      0.06815639879349
  C   7.83255263923403     -1.22652432483928      0.06924629399872
  O   7.22659403981996     -2.45603139585171      0.06993546695977
  C   9.24971526786098     -1.25165386506796      0.06955038777447
  C   10.45264981948477     -1.26270502997200      0.06983067924066
  H   3.19465771915259     -4.53427983283665      0.06755827723623
  H   5.64823398126455      2.05810261732197      0.06686167313557
  H   3.15937144022930      2.08398154770103      0.06314645990853
  H   7.67149526979342      0.87870063534700      0.06770528817951
  H   11.51483935463689     -1.27883005448247      0.07004221349327
