21
Coordinates from ORCA-job 13354optt
  Br  1.41963668635023     -1.47109263324541     -0.55075980515326
  C   3.08612857390829     -0.54467336747550     -0.26239298870167
  C   3.06093647635412      0.83712269249063     -0.14240403534016
  N   1.90414479420500      1.56535436207762     -0.22943394482021
  C   1.78050545741977      2.94228837853375     -0.12991355731421
  C   2.66428736845014      3.92737245829904      0.08012492796454
  O   4.00651221787074      3.92034067307453      0.27390144119211
  C   4.70551465584109      2.76674655370981      0.26252278155692
  C   4.30954973722456      1.46787186704955      0.08295142656653
  C   5.52386399560099      0.63653775809821      0.16742951022022
  C   6.62768347422620      1.41977460480346      0.39620780861835
  C   6.17904218453190      2.79971036788136      0.47567415744308
  O   6.83427931851782      3.82293986657554      0.68040913090101
  C   5.34083103495559     -0.76131555233661      0.00619700311740
  N   4.15726664881236     -1.31856868729125     -0.19869394841046
  C   6.47877916183874     -1.63634233988791      0.06273776702403
  N   7.41382661113547     -2.30449878359417      0.11194849362718
  H   1.06095325921235      1.04276211250133     -0.39344284854136
  H   0.75948953187970      3.27754628664101     -0.24757617577131
  H   2.28565507416302      4.93771855004167      0.11168192367961
  H   7.65011373750187      1.09640483205331      0.50583093214166
