20
Coordinates from ORCA-job 13367optt
  Br  4.16224627192003     -1.00203964442447     -1.94281516979507
  C   3.45759707263871     -0.11909274639821     -0.43183591412139
  C   2.33855433966580      0.73550574924812     -0.55778139912974
  N   1.83919981317152      0.85964631745799     -1.81641148793315
  C   0.94114452241485      1.58973539584998     -2.36460786635532
  C   0.13265339953753      2.67723171486298     -1.82419009610489
  O   -0.58306719901582      3.34068181183225     -2.57309346834600
  C   0.16386753136851      2.97072697099424     -0.40462482777082
  C   -0.58514884315664      3.94178807896485      0.21451755135454
  N   -0.39471879702881      3.92451966632497      1.55798946490236
  C   0.45526146347152      2.95290027229488      1.78037436066793
  N   0.85013579640564      2.32133268648396      0.62695621347757
  C   1.82059874645316      1.29585627786244      0.64846820370311
  N   2.13814942869401      0.95783288144384      1.88378090634078
  C   3.12718983722227      0.13690033518868      2.26311898419654
  O   3.35487104502476     -0.20967209501295      3.39982037440178
  S   4.30386245146001     -0.48417846603666      1.02492870206043
  H   0.75597752609977      1.41967555822843     -3.42498651248555
  H   -1.25221891001912      4.62834354696332     -0.27887508324832
  H   0.84284450367228      2.64230568787131      2.73226706418519
