23
Coordinates from ORCA-job 13366optt
  Br  1.22040090799533      0.15085948591991      0.42791646937058
  C   3.01920640618397     -0.04407434144615     -0.14047066049878
  C   3.61595337006243     -1.24373197759096     -0.21040306256262
  N   3.02736342273330     -2.49123179094239      0.06706286169331
  C   3.74244480328940     -3.36406387279312      0.98831809298069
  C   4.81988942065592     -4.21255289598701      0.27765967783636
  O   5.51714226664067     -3.53922452869088     -0.74200346460077
  C   5.89088330159020     -2.25910867294208     -0.44908417228021
  C   7.10777482904391     -1.65419142512100     -0.32141525951579
  N   7.00998088487997     -0.30082715972259     -0.26357028456606
  C   5.68861975796299     -0.03099091475846     -0.36437524541904
  N   4.94831292523655     -1.22335501379416     -0.55563249868598
  C   5.01429071580610      1.19896700758518     -0.27030486092000
  N   5.44469023643588      2.39574747094916     -0.05914220655535
  O   3.61127027523197      1.10222177973489     -0.54737869457562
  C   4.27717925280112     -2.67060152143019      2.18330727064633
  N   4.63537115093762     -2.18929183213567      3.16015344300939
  H   2.06528557932272     -2.35722393108038      0.34674298797862
  H   3.01403812822582     -4.07758146845973      1.38075048334134
  H   4.31846831224853     -5.04669888595130     -0.21426080472022
  H   5.51515205638496     -4.59855623774447      1.03121486068398
  H   8.06181389577525     -2.15996325836799     -0.29442665533802
  H   6.45246810055523      2.33047398476943      0.07334172269786
