24
Coordinates from ORCA-job 13369optt
  Br  1.16195383590457     -0.26032801161568      0.58762664271783
  C   3.04316386833608     -0.16996038150985      0.42181337904892
  C   3.78193385170780     -1.26765720841930      0.12193394027805
  N   3.28733419886590     -2.58509369678601     -0.06163504894836
  C   4.41189840615733     -3.43226147759644     -0.41367284850810
  C   4.20165930687992     -4.21562192675539     -1.67965421027071
  O   3.21449178965302     -4.16454972262616     -2.36292350367909
  C   5.69621029876202     -2.54633239133036     -0.43519598870199
  C   6.58482073380140     -2.55842092751766     -1.69729131375417
  N   7.68823104341815     -3.48189855319470     -1.40695788218167
  C   7.62933844311837     -3.66393147209815     -0.15812674481292
  O   6.63352594180952     -3.12136611007066      0.55411859440744
  C   5.17657817775160     -1.20679215107200     -0.04948652862817
  N   5.99502078803974     -0.14973236880933      0.03186404834704
  C   5.53531987331924      1.07719187657358      0.31940105174009
  N   6.21385285932399      2.16328365043781      0.43048016685693
  S   3.75791892343318      1.41557875667460      0.60441649707343
  H   2.54676059465235     -2.63684601890624     -0.75328238550427
  H   4.58182881133277     -4.19371832505097      0.36030717012416
  H   5.03818034744745     -4.89333629778917     -1.94139625995610
  H   6.98864016250370     -1.55415060434214     -1.84393902204210
  H   6.04767084795759     -2.84680040763929     -2.60097028076021
  H   8.34082126307420     -4.24492109701137      0.41830924218995
  H   7.19184563275000      1.92566486645491      0.26626128496401
