23
Coordinates from ORCA-job 13365optt
  Br  1.07320937177298     -0.21939334398138      0.23072220084230
  C   3.00162350586362     -0.15980553207172      0.10762996767899
  C   3.62148946899750      1.09339984528292      0.13364472402503
  N   2.96972459372930      2.29886226185983      0.31747190432526
  C   3.58534307226369      3.50426027499798     -0.21688352026546
  C   5.09055701019610      3.56945639389362      0.04112878585321
  O   5.62492884167937      4.67927598680422      0.07381097581468
  C   5.76592543898055      2.30989696328848      0.11548746750730
  C   7.17674944987792      2.20182878551118      0.14001172995226
  N   7.83281601954363      1.06250410253635      0.08913295934196
  C   7.12990042115039     -0.08838563035034      0.01179876006023
  C   5.72328861651294     -0.13803404709125      0.00333881234782
  C   4.94420898968314     -1.33022415439632     -0.03781917172510
  N   3.60416488547490     -1.30864557771223      0.01769976211768
  C   5.57852051143402     -2.60386398578861     -0.13663409495529
  C   6.15262374121263     -3.65805772051287     -0.22325397977981
  C   5.02126750985414      1.09220204529410      0.06582013646685
  H   1.96842705752386      2.24683379370423      0.20831154572708
  H   3.13170874365080      4.37644686914073      0.25127294992365
  H   3.44404296366240      3.59682617361875     -1.30678368776146
  H   7.76078575210040      3.11497439362142      0.18633539464854
  H   7.69774889816370     -1.00944070155838     -0.03022262964527
  H   6.64694513667199     -4.59491719609075     -0.30202099250042
