20
Coordinates from ORCA-job 13368optt
  Br  1.17710235347997     -0.07255165607543     -0.03863386642995
  C   3.04205331859152      0.12041057294676      0.01826566346502
  C   3.66600927039717      1.36003456339241      0.04292196016919
  N   2.95284203952665      2.49917227577513      0.04598542873351
  C   3.56904396756627      3.69870293818623      0.06475996337417
  C   2.73681934985502      4.88043638739399      0.07792891141822
  O   3.12690281392585      6.03530661791020      0.10263138825150
  C   4.97218985952360      3.71426160597199      0.07548249278177
  C   5.73814371021242      2.56734811166872      0.07453317129506
  N   7.08558238708398      2.92215972436369      0.08495276982414
  C   7.05951688504112      4.20212579977460      0.09078097432272
  O   5.82826193415109      4.77259902571928      0.08646333421471
  C   5.12476283689123      1.29207005515205      0.06361872298230
  C   5.78364530189619      0.08733489204437      0.06912299855143
  C   5.08425019402319     -1.15178793977251      0.05662600862748
  O   5.53805991630302     -2.27040698398435      0.06694786645773
  O   3.68424574594571     -1.06042991042528      0.02694993575552
  H   1.65747011978859      4.63836745636536      0.06561566437337
  H   7.89711219130110      4.88067760152055      0.09806287275105
  H   6.86198580449626      0.04216886207223      0.08598373908104
