21
Coordinates from ORCA-job 13371optt
  Br  0.99013231420590      0.16695577050320     -0.05748113406170
  C   2.86781781795456      0.01635972618216     -0.07104237749959
  C   3.52233421434867     -1.16758564361019     -0.07389390829265
  N   3.27745509263180     -2.52698428034670     -0.07094719371252
  C   4.48700523891904     -3.24342481864472     -0.07442704222663
  C   4.44671479144477     -4.65398312740568     -0.07365340281143
  O   3.38398563862239     -5.30288847629496     -0.07051109631148
  C   5.54348017880866     -2.28808396619782     -0.07950300574834
  C   6.97119174289812     -1.99397050302826     -0.08342703035910
  O   7.95199035345729     -2.69362166042667     -0.08403253522894
  C   7.06250901427787     -0.36116167240008     -0.08660892434191
  O   8.11651673920302      0.22561773204045     -0.08971371799524
  C   5.68720909434200      0.11464476327957     -0.08397077362689
  C   4.92996459725020     -1.03970556776739     -0.07975781052691
  C   4.99054663341300      1.36860127347051     -0.08396116030862
  N   5.41061539681367      2.58158977156094     -0.08974858609095
  N   3.57602188108815      1.20308385638945     -0.07631411429409
  H   2.39131282013644     -3.00337411202495     -0.06745976828713
  H   5.42566100399134     -5.15536887138399     -0.07623525469097
  H   6.42652073476036      2.57844765476812     -0.09475444836422
  H   3.06501470143269      2.07185215133701     -0.07655671522069
