22
Coordinates from ORCA-job 13373optt
  Br  0.95069144564016      0.01217745871701      0.09193978231047
  C   2.84272595874736      0.02554433490943     -0.00493817232561
  C   3.54674093959181      1.21824653929818      0.02883219577375
  N   2.97441823781699      2.45740595229436      0.19187842451904
  C   3.68679517223935      3.67684008688142     -0.18473311875676
  C   5.20670838748655      3.62639309930900     -0.01381402983571
  O   5.81426204261222      4.71753215341757     -0.01394356630537
  C   5.79389631744149      2.33921948125162      0.02007471032518
  C   7.15536847797247      1.98558938167366      0.03136740302520
  S   7.39501323360247      0.25091825901348     -0.06125692591629
  C   5.67856542227285     -0.02669170248803     -0.08373836383092
  C   4.92855823686163     -1.19367678836029     -0.11593284526706
  C   3.54240052599591     -1.18860869211930     -0.08185495344751
  N   3.09650747273368     -2.50468789326634     -0.13649441559369
  C   4.17480196286350     -3.19828423899200     -0.19519520368638
  O   5.33455580858215     -2.49949435754253     -0.18875162885326
  C   4.96589564107139      1.17082720070391     -0.02698808261861
  H   1.97490710357421      2.48048818496454      0.06407354216320
  H   3.32017376255231      4.49894228728350      0.43229356558540
  H   3.48466799896564      3.94567287460431     -1.23413787411423
  H   8.00450880214124      2.64559279429976      0.00225902373101
  H   4.26383704923457     -4.27094641585327     -0.24993946688184
