22
Coordinates from ORCA-job 13374optt
  Br  1.37170644780246     -0.57371981544162     -0.20086566580738
  C   3.15446762553462      0.05668762077378     -0.17608167113323
  C   3.47020818574108      1.35179557420448      0.30703999457821
  N   2.70909648097108      2.34861192038792      0.79862820103094
  C   3.56855987119165      3.35046541173787      1.07876751097511
  C   4.88828188952358      2.99642173023453      0.77582720155061
  O   6.02356617780673      3.78377881583742      1.00763975115072
  C   6.75129063146662      4.10208704814484     -0.06220749126883
  C   6.61217997812857      3.80277430549494     -1.36280285288594
  S   7.90685665302818      4.52963729329392     -2.29337232321533
  C   8.64174934996127      5.24719825681177     -0.84544376880138
  O   9.64022836610644      5.92774504165895     -0.80287453920286
  N   7.86262215091341      4.88044373326191      0.22027776709109
  C   4.84351289731506      1.69920199454921      0.27064361654382
  N   5.79469450546916      0.80128281259729     -0.16580463538589
  N   5.46876365056027     -0.40943016009562     -0.71874762872367
  C   4.18333747600053     -0.73188595053026     -0.67269844541259
  H   3.23351685215050      4.29226518804198      1.48980314985314
  H   5.81980856197752      3.22641493074415     -1.80667006402903
  H   8.08216774228687      5.18323654070118      1.15648824787861
  H   6.72374828049384      1.11314139250274     -0.39148107972510
  H   3.95963622557037     -1.70915368491143     -1.08406527506100
