23
Coordinates from ORCA-job 13379optt
  Br  0.90924623828409     -0.18205807151370     -0.11928963336485
  C   2.81270788082601     -0.05957910025782      0.00301698349578
  C   3.54984129928443     -1.25161942198837      0.14862558357505
  N   2.91995429162355     -2.50191899747983      0.34688650952102
  C   3.50938083531595     -3.60056149870823     -0.39207061178987
  C   5.00857230054200     -3.66671797572080     -0.20342469846816
  O   5.68039371550936     -4.54822884435071     -0.68092103957653
  C   5.60275908443097     -2.55058794187006      0.63485046438393
  N   7.02600881586950     -2.46809016267837      0.43495390749521
  C   7.77228754510850     -1.33640565075602      0.34437435737040
  O   8.97767007307993     -1.33969937147183      0.25978473669705
  O   7.10384232128327     -0.16571021188181      0.37139529861656
  C   5.71717698684879     -0.12859219012054      0.25797200081576
  S   5.13160002197453      1.44741763784787     -0.19622769371744
  C   3.32883458249121      1.25040767692262     -0.09167785876747
  N   2.63125564177313      2.33127337987960     -0.18959762120613
  C   4.94037717832073     -1.25539240072751      0.28345793201535
  H   1.92133300372133     -2.43922373382170      0.20952514266856
  H   3.35213292361274     -3.52125331937041     -1.47696465229534
  H   3.08776275153054     -4.55180574758945     -0.05845259925873
  H   5.36781569596401     -2.81763086978484      1.68182364330683
  H   7.52804639851102     -3.32791336102727      0.27953833214006
  H   3.22800041409436      3.15089017646920     -0.25457848365703
