21
Coordinates from ORCA-job 13383optt
  Br  0.91804142527443     -0.82246390756439     -0.54137919477607
  C   2.75220820394339     -0.46910623404968     -0.19209100457243
  C   3.21613704305470      0.82496174079413     -0.12193792180183
  N   2.47139586962799      1.95611194559169     -0.35753685428103
  C   2.91220589145682      3.25364077314336      0.14606613775044
  C   4.43171017352384      3.47408807293045      0.20552234718072
  O   4.81882464403821      4.64069523815781      0.31053450764139
  C   5.23614631854618      2.29234891098138      0.23225014616124
  N   6.58256547967996      2.25415067698625      0.41252801622243
  S   7.09202213200653      0.66168253539494      0.48593128163607
  C   5.51006534449666     -0.03017501182683      0.27025372674883
  C   4.99535928219715     -1.32018332318557      0.18505930873855
  C   3.64311176068584     -1.55135321269019     -0.03591105505795
  C   3.57045229316977     -2.96902817992903     -0.04714742599065
  N   4.73193063472648     -3.52450651392003      0.14124505449770
  O   5.64872683766162     -2.49612286356121      0.28921870027001
  C   4.60510543057759      1.01950156331993      0.13494968671000
  H   1.47339822120532      1.81335562908457     -0.36876452390021
  H   2.52885807287877      3.43941310173637      1.16081670470864
  H   2.50787591771806      4.03449119679832     -0.49889366286221
  H   2.70485902353066     -3.59850213819225     -0.18671397502364
