26
Coordinates from ORCA-job 13384optt
  Br  1.31839523671968     -0.07885023136911     -2.06022468828229
  C   3.04262241893879      0.16297210835724     -1.16440305130073
  C   3.58325415843581     -0.92525242454226     -0.53348909671493
  N   2.99622018691568     -2.21871407905879     -0.47701801609444
  C   2.38533764298912     -2.59779693991351      0.79560946892923
  C   3.01659965911968     -3.87962130019972      1.30552630875570
  O   2.38715063264661     -4.81392092286253      1.72928074084023
  C   4.54342823807788     -3.90793276496212      1.23602487320184
  O   5.10998939795482     -2.70521746730751      1.66596306216251
  C   5.66045045417848     -1.90124708191442      0.53934243214015
  C   5.88464253757633     -2.94785311673101     -0.56564230457678
  C   5.01967491410930     -4.13092003636696     -0.20276722621884
  O   4.79629572532100     -5.10984800939976     -0.86040538177501
  C   4.82895843370537     -0.74030841168232      0.16352709516932
  C   5.31741357734746      0.59358867472176      0.18392673253098
  C   4.66584158352052      1.58796950149304     -0.48877243511464
  N   3.52479230498766      1.40015223164627     -1.23563122562333
  H   2.35137973833720     -2.36057060234065     -1.24151046960570
  H   1.30908957531866     -2.75327475866042      0.70741531668931
  H   2.56687526625600     -1.81450840272717      1.53614448731026
  H   4.87950799131590     -4.74743358052770      1.85189623500631
  H   6.61196548251250     -1.53245939894921      0.92333971566105
  H   6.92020770966515     -3.29799385122735     -0.58256761658013
  H   5.62221366237086     -2.58209059807630     -1.55632245883400
  H   6.23011971581463      0.82826998796063      0.72358023767827
  H   5.04257375586483      2.60486147463995     -0.46582273535435
