22
Coordinates from ORCA-job 13380opt
  Br  1.04373933262992     -0.07497515320592      0.38857500832466
  C   2.92238179558666      0.00424163356794      0.21642903830609
  C   3.64388082801381     -1.17322858403492      0.21587490084975
  N   3.16485515762239     -2.42578284838245      0.36767544922635
  C   3.96620019273588     -3.63087580722341      0.11900337319245
  C   5.48811906457436     -3.43615082025408      0.15810449400234
  O   6.18349039041358     -4.48075728123972      0.16905807107556
  C   5.93299009626236     -2.09964921277300      0.10596885478675
  N   7.14657275971370     -1.51562705440884      0.04685106492361
  N   6.97633259724207     -0.15804084457548     -0.00007904649782
  C   5.70023905153471      0.11455521270348      0.02701826660124
  C   4.97103599593815      1.34113889586896      0.01954110618499
  C   3.61728836667838      1.25743414307299      0.11044401146740
  O   2.74625391399162      2.33893200913961      0.11339328079314
  C   3.09621948773223      3.61896145185626     -0.00336529046316
  O   4.19062804250499      4.08362431740651     -0.11004334569165
  N   4.98051923656482     -1.07118051809531      0.08584566062137
  H   2.16225123183476     -2.51179998008322      0.38035012430199
  H   3.69714047296191     -4.06122226599857     -0.85539064193753
  H   3.71797259662279     -4.37327935893608      0.88048136391812
  H   5.49570327163788      2.27607818896975     -0.04936600318304
  H   2.17618611720272      4.21760387662555      0.01363025919742
