27
Coordinates from ORCA-job 13394optt
  Br  1.05996258613771     -0.41076106606642     -0.23658576831259
  C   2.96100012326641     -0.22603809714175      0.00461929047138
  C   3.73814094543387     -1.40247326883741      0.23279912053104
  N   3.09367906376634     -2.64789572536615      0.47563315955254
  C   3.19001487214811     -3.63220269442923     -0.60111908246220
  C   4.50366461051512     -4.40596866509256     -0.52095396005161
  O   5.65788809533493     -3.62655242314179     -0.67973942961660
  C   5.87478965614972     -2.68361699194825      0.36829329731392
  C   5.13615534325792     -1.38401597546713      0.20358299742004
  C   5.87837962689471     -0.23557745883555      0.04013520137362
  S   5.20450929458370      1.36707630187383     -0.00734355244679
  C   3.39960177721506      1.09243940179992     -0.15622991373361
  O   2.75033470271269      2.10817063463140     -0.38355893949406
  C   2.04143794370682     -4.60246387088458     -0.49239521005699
  C   0.74955848126862     -4.25334690676878     -1.11424423158430
  N   1.58520584343048     -5.31718165657474     -1.68118657471567
  H   2.11775407302704     -2.48720119243641      0.68720819985358
  H   3.13238247493727     -3.13538054867367     -1.58323283399225
  H   4.52836108290742     -5.15766298313667     -1.31403193553741
  H   4.52759880971951     -4.92231300910353      0.45054366047863
  H   6.94751928097836     -2.48904906320807      0.37106099318260
  H   5.59893504384513     -3.15256490057852      1.32171045955849
  H   6.95550834065989     -0.27733080784968     -0.05076999125796
  H   2.03441281061336     -5.20494611763755      0.41099133929151
  H   0.70086288330828     -3.30002683322934     -1.62712937669728
  H   -0.17768815935070     -4.59389852190866     -0.67248392142494
  H   2.08003039353211     -4.96321755998864     -2.49457299764308
