24
Coordinates from ORCA-job 13393optt
  Br  0.89798472725425      0.24204140357409      0.27148479331984
  C   2.76849853164835      0.16082816811136      0.10217919747979
  C   3.55062289877510      1.31549094361124     -0.01633736887210
  N   3.10984166105690      2.57666024563159     -0.05189791065531
  C   4.23133031130082      3.34908185904045     -0.17316128891593
  C   4.12078173630836      4.78097970769968     -0.23887359384511
  O   5.04423693786394      5.57573473107849     -0.35534380910420
  C   5.41210587796524      2.57450510157833     -0.21367455043371
  C   4.99740457918351      1.25870175574189     -0.11457383237232
  C   5.73109265601237      0.02440652312773     -0.10660036910840
  C   7.22537771949140      0.06380148655927     -0.19658956129305
  O   7.76331608073505      0.53975446999746      1.03986319718785
  C   9.13960550285985      0.41129775263807      1.12627810554178
  C   9.89435771822657      1.27689503775221      0.18768778054019
  N   10.52040210072274      1.92417051310391     -0.52088798859160
  C   5.11949274314115     -1.17420520610081     -0.02681372009741
  S   3.41248942422482     -1.45007683393637      0.09042582515935
  H   3.07616013723813      5.14241285126733     -0.17353994251886
  H   6.41850700112391      2.95813605717285     -0.28883469402281
  H   7.54686558697924      0.73370735244218     -1.00317414772033
  H   7.62462663095056     -0.93936713701664     -0.39191052028299
  H   9.46480565649340     -0.62100299668610      0.93910631770192
  H   9.43492573939904      0.68758114711531      2.13845839527481
  H   5.68616804104511     -2.09753493350358     -0.03027031437139
