24
Coordinates from ORCA-job 13395optt
  Br  1.03560426644877     -0.13114848911683     -0.27649002548262
  C   2.92938974434798     -0.09537249766351     -0.19319216586603
  C   3.63194896742145      1.13479322615853     -0.26179377811440
  N   3.00180211340932      2.38459929637457     -0.44460525744759
  C   3.56040483181074      3.44441412282328      0.37740618145830
  C   5.06092634589020      3.57571774523910      0.18453132033640
  O   5.63717352826141      4.58703117701199      0.50175277350145
  C   5.76498318096241      2.37444170963545     -0.40082983338889
  C   5.01662858430904      1.07932909457548     -0.21419061747575
  N   5.72858942196305     -0.03554877520697     -0.07599921419344
  C   5.05369045452941     -1.21492300436243      0.00406023689182
  C   3.63142404649226     -1.26149344447145     -0.06376088874453
  O   2.99655623983646     -2.44466852449787      0.01154849686936
  C   3.72504375624718     -3.66739700943930      0.15160985253989
  N   3.00615073427416     -4.72373412579766      0.20160157010070
  N   5.06314953860476     -3.63106578395359      0.21919565628708
  C   5.68900460407114     -2.45160021099912      0.14983714537918
  H   1.99843239751778      2.31499080729073     -0.34555001823323
  H   3.42134031831317      3.25873688494451      1.45453719136611
  H   3.10148933973858      4.40196929337520      0.13320158807211
  H   6.77413731445367      2.30628398465542      0.00173833837670
  H   5.85605006021700      2.58443506322648     -1.47586932240869
  H   2.02820193176675     -4.45831877156337      0.12791091579765
  H   6.77287827911320     -2.46047176823863      0.20834985437840
