20
Coordinates from ORCA-job 13404optt
  Br  1.13506489917231     -1.77634346342252      0.55197140920993
  C   2.70521413213589     -0.77006603798913      0.26774517354995
  C   2.61021949213662      0.64905870419159      0.14320706469872
  N   1.40358695667740      1.18364394842426      0.26131091623749
  C   0.98218997175855      2.43753215830841      0.19798848595589
  C   1.63489854130569      3.69942444071232     -0.03198140845369
  O   0.97118825719585      4.74847983926946     -0.03713005568322
  C   3.08646006186407      3.79620980598556     -0.27073524603983
  C   3.99984528148634      2.81993290464200     -0.29607627476994
  C   3.85499463858348      1.39058051107403     -0.10571757574050
  C   4.98195208896254      0.64282550722788     -0.16802346483012
  O   6.26257081750510      1.02107651609122     -0.37552548380798
  N   7.04198983944207     -0.16814611737122     -0.34831737763923
  N   6.29275573470497     -1.12887909279511     -0.14378985696757
  N   5.03050100742125     -0.71143808058436     -0.02297687039811
  C   3.87852598055817     -1.55766820265804      0.20573005190415
  O   4.05844920685848     -2.75459542255343      0.30762114122506
  H   -0.08812160668463      2.56152642560708      0.34832009427204
  H   3.41814109003561      4.81392162697853     -0.44215496796292
  H   5.02357360888021      3.12492402886146     -0.49046575476011
