24
Coordinates from ORCA-job 13402optt
  Br  1.04047505160785     -0.14208791944201     -0.18307018311640
  C   2.93556654230782     -0.15993243154435     -0.04841008246440
  C   3.63744812543065     -1.37851796299713     -0.09628113913560
  N   3.24878610357184     -2.64262337828034     -0.22424785077777
  C   4.40473634381116     -3.37957233134143     -0.22259544978107
  C   4.39111065147625     -4.78990741673756     -0.37715099529973
  O   5.39252058953575     -5.52374969738624     -0.39562686397338
  C   5.57276931706112     -2.55514278760098     -0.08143966387281
  C   6.99574842591883     -3.00939339353908     -0.05474808383360
  C   7.32875838626521     -4.02882419197987      1.06029481861078
  O   8.40309496968013     -3.39287471043114      1.81019062167014
  C   8.59485500119771     -2.20196291022500      1.22627067151906
  N   7.91371802668737     -1.87306896499331      0.21892621019884
  C   5.07577653190921     -1.28229989063286     -0.00714013010907
  N   5.65153127102899     -0.03237032665980      0.10979868412091
  C   4.84582937154436      1.07383525209445      0.14273392703954
  N   3.55085295056200      1.02882821807085      0.07050877966396
  H   3.38134494177416     -5.22262555845410     -0.49054071223117
  H   7.26114399805100     -3.43221373840292     -1.02704997119085
  H   7.68911834213101     -4.97868379523775      0.67987409521317
  H   6.49193932871807     -4.19617546208119      1.73432010313949
  H   9.36008791501061     -1.58869168125938      1.68887497024836
  H   6.65801990455135      0.03151340245057      0.13180316652323
  H   5.34676791016747      2.02854167661060      0.23670507783836
