26
Coordinates from ORCA-job 13415optt
  Br  7.42556925749813     -0.13173551749279      3.05174753330669
  C   7.36530075350761     -1.51162108328577      1.74706987000183
  C   8.07753110545320     -2.72693731328302      2.00332063060203
  N   7.75656542923411     -3.78953046991497      1.16739455764122
  C   6.82808149473574     -3.51787211509663      0.05358391770246
  C   7.01367094812096     -2.15441256768442     -0.53015097493899
  O   7.71268642111651     -2.03416220839984     -1.77786719597479
  C   9.03384072779285     -1.89988312434766     -1.40596184828832
  C   9.81613919859727     -2.93116165785520     -1.07651022424775
  C   10.87425114492131     -2.75976024730189     -0.09687400106969
  C   11.15448800728571     -3.71423893790382      0.79554048298655
  C   11.83221772410212     -3.43850269058398      2.09058271643020
  O   12.89288040150436     -2.89170822693974      2.21526161804649
  O   11.14846786630739     -3.89066976238062      3.17588569512512
  C   9.74876859566890     -3.96009896040747      3.02804906843564
  N   9.10107835175647     -2.81139205190992      2.83620167752585
  C   7.14920836797238     -1.16062316118952      0.40418219198723
  H   8.58244918694419     -4.32644267102771      0.93073350249338
  H   6.94654774879944     -4.29988811716613     -0.69625069430769
  H   5.81772506044091     -3.58273125795237      0.46880003260476
  H   9.35122384714821     -0.87474472709026     -1.22723094404361
  H   9.43687829029694     -3.93532647213809     -1.24336283076846
  H   11.25271682467831     -1.75615979627194      0.07430513742478
  H   10.70867234261788     -4.69922753822516      0.69917534755487
  H   9.36705862096533     -4.96483023631728      2.87786049200483
  H   7.26998228253300     -0.12333908783357      0.09951424176532
