30
Coordinates from ORCA-job 13417optt
  Br  1.19541029267839     -0.82720149174050      2.42650521344120
  C   2.27517266656762      0.13695570215557      1.15991588170125
  C   3.18414351168990      1.11109853406402      1.63330910278709
  N   2.91006003656932      1.87270438316244      2.80878873411568
  C   1.78426878690416      2.79567388252258      2.59148362120973
  C   1.72979846324431      3.50909228758521      1.23070770393922
  O   0.98113623903478      2.71306099415396      0.32440626438131
  C   0.89333530626208      3.15735547730458     -1.00107800141759
  C   2.08467812348807      2.85845844935764     -1.93338096014855
  C   2.35257071706648      1.37175500384213     -2.27551149042053
  C   2.86697101601306      0.62004636171510     -1.08401534154972
  N   4.09030873843379      1.09449576332490     -0.56125598790884
  C   4.13429575528527      1.64350954401295      0.73500362713384
  O   4.93755094123147      2.57074922625809      0.97418696593168
  C   2.03605055714006     -0.03870169077433     -0.19490617130520
  C   -0.36479884851562      2.52373411652195     -1.56067806111088
  O   -0.81695186082703      2.78112756227073     -2.64444023123927
  H   3.74649529386133      2.41586775553761      2.99497141186622
  H   1.81102197629921      3.54552967998872      3.38636148985392
  H   0.84975240699833      2.23673156954239      2.69667218391380
  H   2.74399111953036      3.68633190213558      0.85986866959578
  H   1.22168797756623      4.47905342247858      1.34192914399847
  H   0.72947451954743      4.24747379075873     -1.02042102064400
  H   2.98378839378262      3.29097866515623     -1.48448026736961
  H   1.88448642559610      3.41229608976929     -2.85545431060918
  H   3.07814690395314      1.36314835128706     -3.10013034867658
  H   1.44167031576167      0.90070714038875     -2.65449781446895
  H   4.69547122236336      1.59896623761128     -1.19287068620690
  H   1.13158442023944     -0.52680107229652     -0.54255419154328
  H   -0.84557141776541      1.79280236190523     -0.88343512925014
