28
Coordinates from ORCA-job 13414optt
  Br  1.27180476788468      1.08950105545668      1.89079558278272
  C   3.06286018056802      0.63930855378844      0.01050107928474
  C   3.14629844770352     -0.62586831755188     -0.53895453168141
  N   2.01291170688191     -1.40518338746749     -0.90799011257382
  C   1.37026851128896     -2.15523063150051      0.17470077830508
  C   2.18038736605884     -3.38953289603189      0.53073960385036
  O   1.75703093540924     -4.50708342862514      0.33120995270943
  C   3.58205257032189     -3.19501455243950      1.09414726844626
  C   4.69554028858740     -3.35264936267938      0.04470516904229
  C   4.77447880792655     -4.75807787304561     -0.54936289560190
  C   5.19093362151587     -5.75300211231144      0.43214270620680
  C   5.54781583866858     -6.55004756685062      1.25282114637673
  O   4.53258532629351     -2.48312889317528     -1.07331668089292
  C   4.43441489806727     -1.15591792844105     -0.69004150081435
  N   5.55756853010835     -0.51795622249484     -0.44375879077133
  C   5.44413151799288      0.73153493160682      0.02159070082545
  C   4.22697709325283      1.33427729153333      0.29441522639915
  H   2.28341145805622     -2.04718196548706     -1.64345646180145
  H   0.38107651847486     -2.48170779509896     -0.14512364378325
  H   1.26964658472174     -1.48520604112598      1.03294301136502
  H   3.73965211080268     -3.96842140455734      1.84831389791334
  H   3.66708352650353     -2.21758420586253      1.57040468798692
  H   5.64738949594716     -3.11400319865186      0.52999160005883
  H   5.49435049281553     -4.72767747718817     -1.36926611664885
  H   3.80218298359206     -5.03544742654386     -0.96140074467396
  H   5.85219403063267     -7.26342031945034      1.97930307420374
  H   6.37738694493198      1.25325584504954      0.21235866321400
  H   4.18956544499109      2.31846532914603      0.74558733027237
