28
Coordinates from ORCA-job 13413optt
  Br  1.14727252208127     -0.00567657227731      0.61419552957028
  C   3.03449876053437     -0.06635743949884      0.43447283369897
  C   3.67760764124920     -1.30700135090406      0.23977758178330
  N   3.01747279783388     -2.48276518847428      0.19306433386220
  C   3.30096030319916     -3.56301868656798     -0.75038339906928
  C   2.08117281292683     -4.48473235171178     -0.66334411992360
  O   0.95503743513039     -3.94959207418362     -0.35035490402447
  C   4.63894384758196     -4.24505315918722     -0.48610269715844
  C   4.80260107411729     -5.52532923986560     -1.32061445253576
  C   4.85080080524186     -5.29618856850646     -2.76422706783448
  C   4.90904401423452     -5.10534439188329     -3.94725941955653
  C   5.80374416118357     -3.30710909446221     -0.74872708356765
  O   5.92354760592423     -2.28213844791152      0.22876766646596
  C   5.09122670337898     -1.20057925307005      0.18058259739904
  C   5.69833278220165      0.04040967393917      0.24062107542449
  N   5.05713910057336      1.19761619532190      0.39345006386739
  C   3.73618131765093      1.12219920772433      0.50385892010282
  H   1.99733598493813     -2.47409779283248      0.30786055177705
  H   3.37354455842754     -3.10738729707741     -1.76221436444242
  H   2.10205854397892     -5.31897007798139     -1.38076670763891
  H   4.65630965562046     -4.54243122120469      0.56620540759913
  H   3.97352236048884     -6.19455577664868     -1.08189354697474
  H   5.72609061709520     -6.03087572421736     -1.02395305267856
  H   4.93870839513893     -4.92700706767591     -4.99433421882142
  H   5.71643266544399     -2.85940933916326     -1.74511706001408
  H   6.75074257390255     -3.84990900800864     -0.69898214107203
  H   6.78207773903369      0.06954026410628      0.19228263631672
  H   3.19459322088822      2.05076378222245      0.64413503744506
