22
Coordinates from ORCA-job 13427opt
  Br  1.22175006961005     -0.42749225502021     -0.62645000982091
  C   3.27954898559143      0.05871736067179      0.36744017705170
  C   3.81671607397044      1.28496695702859      0.12649088564044
  N   3.33502405017545      2.60911959914758      0.17612332162760
  C   1.96450954129407      3.02662197966585      0.12760355514303
  C   1.32109954164654      2.68777365397215     -1.23523371497299
  O   1.94946764459948      2.77492399401796     -2.24638318714243
  C   1.16803778920585      2.56983224729766      1.26619827408327
  C   0.48274682732401      2.21932911722219      2.18160987807042
  C   4.36111011362066      3.48661819472516     -0.07371452669429
  O   4.30449699360134      4.69740003054763     -0.14319918891169
  N   5.50191635157517      2.70075639526866     -0.21410526311237
  C   5.19751396516393      1.36118234591170     -0.12616184601109
  N   6.03127744584992      0.37152028992394     -0.23827165400437
  C   5.47052946720075     -0.87598644469190     -0.08651117940702
  N   6.06824331065782     -1.98951941008837     -0.20497988833011
  O   4.11847956514966     -0.97758893459844      0.26729459682169
  H   2.00032698485255      4.12376498008699      0.14612589541669
  H   0.24643326480441      2.44762647623881     -1.20830628481284
  H   -0.11190954313413      1.86547081556756      2.98832898658848
  H   6.40574768201964      3.08712312747417     -0.42391723547033
  H   7.03493387522069     -1.78816052036961     -0.44298159175292
