25
Coordinates from ORCA-job 13429optt
  Br  1.16962046910840      0.75317744442154     -1.45189024113599
  C   2.54753871766722      0.03306192486939     -0.34038885696504
  C   3.33643198926351     -0.95370742053093     -0.84301719288117
  N   2.83165712919244     -1.79024574126384     -1.86155901563797
  C   1.62105238763240     -2.44534084956984     -1.41759190697614
  C   0.68891319325603     -2.77694364910702     -2.50752042000163
  O   -0.33083445220083     -3.41777170451297     -2.40117306565790
  C   1.30431667298790     -2.50826355677041     -0.10224769643584
  C   0.03696965245650     -2.73607691830165      0.56258167268382
  C   -0.28981236963746     -2.16907585112041      1.74290882226495
  S   0.49865754567601     -0.93109865541355      2.76849284747738
  C   1.16017808723259      0.29990029367869      1.69048010957999
  C   2.42475299077380      0.12699112163430      1.08487613433607
  C   3.53528147915397     -0.41930178940204      1.78740090110332
  N   4.55627998473239     -1.05499426203677      1.26648592377440
  C   4.48005591126217     -1.42402342573135     -0.06023537323388
  N   5.31624669669989     -2.23265061615071     -0.63718831652954
  H   3.56040923184038     -2.42405269287636     -2.17591029990325
  H   1.00998279516347     -2.37873941023353     -3.48936516983174
  H   2.08322329307804     -2.22832652386745      0.59570990012601
  H   -0.70086927482257     -3.36977498193002      0.08636523189342
  H   -1.24354552910469     -2.45263123250571      2.17940834986437
  H   0.39283692055787      0.83776220719353      1.15223356017103
  H   3.52291841437944     -0.32126734615024      2.86990555555832
  H   6.02273806365108     -2.49560636432263      0.04723854635702
