28
Coordinates from ORCA-job 13420optt
  Br  0.65970741204983     -0.41311277670492     -1.05686935509328
  C   2.88219225000294     -0.09691382492545      0.14907945756541
  C   3.58078863640728     -1.24855328875802      0.38200878088322
  N   2.88846096123848     -2.48780907102401      0.53841620720036
  C   3.06691887042299     -3.41936660582452     -0.57741425102827
  C   4.34742003372659     -4.21805308240644     -0.43164871829259
  O   4.33149708504687     -5.42616146469567     -0.41724700788299
  C   5.66917796636346     -3.47377323552797     -0.36691582453267
  C   5.81718533443538     -2.40601189110578      0.73229466749393
  C   5.53824315715737     -3.00722792548404      2.12216793800936
  C   5.84923932372673     -2.04375319137174      3.22883280144757
  O   6.52487394636554     -2.30908206320156      4.18985081500503
  C   4.99308729669560     -1.16641855608094      0.45250691389447
  C   5.63127636661098      0.03468757505655      0.25968458943943
  C   4.91445547585910      1.25102817476069      0.00099895989307
  O   5.39216632284410      2.36910757760459     -0.17938035752313
  N   3.52751658391396      1.06591485163230     -0.01913324430495
  H   1.90069960466884     -2.25650852447570      0.58351234479282
  H   3.07895052670327     -2.89257671270129     -1.54360035117425
  H   2.24407371564596     -4.13164849131070     -0.58029996855138
  H   5.81033025206320     -2.98359316976160     -1.33618774620733
  H   6.44416743898752     -4.23221540084437     -0.24913472552189
  H   6.86644605516298     -2.09964921669825      0.70647906039632
  H   6.11768282160465     -3.91888196238588      2.27518647473641
  H   4.47078918730467     -3.24721248866388      2.18669770963545
  H   5.40689413701291     -1.03578466288884      3.11764398705662
  H   6.70955915535912      0.11015904629806      0.30348582981140
  H   2.98720008261949      1.90241038148948     -0.20201498714817
