21
Coordinates from ORCA-job 13431optt
  Br  1.49027784434016      0.10723645011930     -0.44418670002458
  C   3.34873121629343      0.06735025032868     -0.16256581517092
  C   4.12884939517687      1.25994957250947     -0.05391881082179
  N   3.55800199465013      2.47474418492430     -0.17756561167894
  C   4.27566467398389      3.56438867682052     -0.07961763292706
  C   5.70267609066712      3.61840701495691      0.16799745204613
  O   6.33645217269181      4.68279712158841      0.24366029608066
  C   6.29422066552210      2.30792672241254      0.31464699942489
  C   7.68017180960949      2.16623142560357      0.58676553303804
  N   8.78894786688537      1.94068326613633      0.80865335004269
  C   5.52799508460772      1.14650076664280      0.19557886900133
  N   6.11851300695979     -0.09540255332181      0.32037711259370
  C   5.37018715649294     -1.24091345115356      0.19490452139553
  C   4.00545537155693     -1.15607552218611     -0.04353951125170
  N   3.60156760155257     -2.46547631068353     -0.10860484227313
  C   4.70955024226083     -3.24728781087528      0.08876641722592
  N   5.79393607864004     -2.52112458887310      0.27607632481821
  H   3.76670516133757      4.51730901626457     -0.19250599623978
  H   7.11022312766263     -0.15453211166555      0.50212914972903
  H   2.65797358392721     -2.76787111899462     -0.27788188747527
  H   4.66589985518135     -4.32284100055386      0.08583078246704
