23
Coordinates from ORCA-job 13441optt
  Br  2.32352205478429     -1.28633296046830     -1.33465738043556
  C   2.95758482941810      0.08177781333418     -0.17522871395027
  C   2.18160723611211      1.26244426208657      0.01065481581904
  N   1.09225612180641      1.65882033414303     -0.62006825973951
  C   0.41309176937265      1.39816579779731     -1.69406964658092
  C   -0.62380235528563      2.36722771582013     -2.13245983203333
  O   -1.35052779345851      2.11334631506982     -3.08742516847202
  C   -0.77545338350011      3.55046240443499     -1.25997705131809
  C   0.29288285385277      3.96363397800263     -0.56000381511959
  N   0.30811693781712      4.60807262793472      0.64806524742099
  C   1.25883979776830      4.37049056492969      1.63699633196700
  O   1.15734457011433      5.03321927738362      2.66594263386734
  C   2.37125845310482      3.42340893767091      1.51789933283726
  C   2.74014622246482      2.18826058444684      1.00259053563840
  N   3.93174555034666      1.71857351227608      1.52566423271510
  N   4.63633376890628      0.59088671773623      1.25519997125730
  N   4.10379166742609     -0.21969820664886      0.40357734598331
  H   0.54432552217496      0.53694852483328     -2.34566957038301
  H   -1.78626208355776      3.82239681331171     -0.97521936721559
  H   1.28998937660015      3.76928855219947     -0.91612898104650
  H   -0.54050868868948      5.01441631414423      1.01449815550263
  H   3.06675597502498      3.74134673986364      2.28932993002076
  H   4.40596159739664      2.29984337969800      2.19648925326525
