26
Coordinates from ORCA-job 13442optt
  Br  0.73674265384257      0.95060710445845     -0.13645653295760
  C   2.64036137980081      0.77171408022960     -0.11213143741857
  C   3.39724415695188      1.22262350396844      0.90608564657509
  N   3.07287588834767      2.23412643840672      1.83461003858516
  C   3.72470383160228      3.43778750481861      1.26408191872873
  C   4.93251067036989      3.86826996743386      1.87583893014576
  O   5.50303161302401      3.32529421743175      2.83637349620707
  C   3.23138888491439      3.83855758563735      0.00781165086279
  C   3.93728355760209      4.36362195496246     -1.11746687469796
  N   5.01578728344644      5.07459928545904     -1.11462431726866
  N   3.33529946696720      3.93307229497203     -2.37063492099857
  C   3.71055065676890      2.81988987591185     -2.84803976897628
  C   4.76447170278240      1.99134266247724     -2.19927121956518
  C   4.53610471079900      0.92261824384216     -1.44058000183761
  N   3.22084608791534      0.34785508276163     -1.31787602821148
  C   5.41748647455965      0.59570578393558     -0.29615372564568
  C   4.81868877741670      0.83346426292556      0.87631006370416
  H   2.06824740621613      2.37227684364232      1.86626258858520
  H   5.36696772150075      4.76439578686019      1.40735423402933
  H   2.28292694633536      3.39555863579037     -0.27210067270259
  H   5.31718892642182      5.23251021261223     -2.07542855831562
  H   3.23465403956386      2.46681338628892     -3.76305033826655
  H   5.73906607585994      2.46043610914456     -2.09845393352824
  H   3.20648055948073     -0.65917582453216     -1.46588283749943
  H   6.47352692097564      0.38362309596212     -0.39683657607633
  H   5.34256360653450      0.86041190459908      1.82425917654307
