25
Coordinates from ORCA-job 13449optt
  Br  1.10542267343018      0.01118665994195      0.49334742146015
  C   3.00112022266873     -0.18857903781923      0.49481016719252
  C   3.59388283187604     -1.39040039383238      0.03168456216645
  N   3.05135643417284     -2.52330266808377     -0.46026984941807
  C   4.09744091421959     -3.32200792702511     -0.74217240446883
  C   5.32598275241597     -2.71849097194473     -0.42157749430193
  O   6.58380377810684     -3.30437972689416     -0.57767084342037
  C   6.84912605848081     -4.28825720986565      0.36983443979704
  C   7.45289665839279     -3.78027683531066      1.65558700129160
  O   7.81414817478153     -2.65797145051301      1.86133501541633
  C   5.00989628090194     -1.45645957466372      0.07809554710000
  N   5.76222673102546     -0.38231285405760      0.56873288124115
  C   7.11212765068349     -0.21638157000770      0.05815019274590
  C   7.95378823349230      0.60486971497898      0.93119917811681
  C   8.65721442393718      1.28302049891055      1.62507351897680
  C   5.03403269352414      0.76264552441854      0.90210595703298
  N   3.72955848348178      0.83881740547715      0.89975105485417
  H   3.96292167659543     -4.30469964832180     -1.17697415114608
  H   7.57465835894656     -4.99887153018745     -0.04966403703391
  H   5.94677042065047     -4.85920614208580      0.62459901382704
  H   7.57466565285502     -4.56709534370138      2.43275102444260
  H   7.09062660626165      0.24057625051980     -0.94257753296056
  H   7.55904788403271     -1.20494924218509     -0.02900499787981
  H   9.27394936055163      1.87538241047284      2.25567056225007
  H   5.62233504451454      1.60514366177951      1.23818377271789
