22
Coordinates from ORCA-job 13444optt
  Br  2.37676848635753     -1.62788102259174     -2.25695980280882
  C   3.28799705191953     -0.59695310663981     -0.94392667986944
  C   2.66733738306860      0.53317918421779     -0.42713005868684
  N   1.41093391326178      0.88485797998207     -0.82362261088308
  C   0.91384192869063      2.15969906859336     -0.67941922273766
  C   -0.48534654323820      2.28444657114062     -0.33168239993406
  O   -1.05628802435000      3.32546282141693     -0.07604572249159
  C   1.86718961517437      3.19353791557595     -0.62372491300385
  C   2.20521950069941      3.47282560324263      0.77824107185166
  N   1.98987362651882      4.41508081875034      1.57628923592724
  O   2.83593236858424      2.34325750465768      1.33177263111202
  C   3.38342127189975      1.31371392356758      0.60972999627512
  C   4.61037084951133      0.91874238531268      1.01476505693311
  C   5.29755509684367     -0.24736362408319      0.49284092058780
  O   6.39895174061198     -0.58137799486284      0.88960814693836
  C   4.58505908379999     -1.07302743026725     -0.57783491200919
  O   5.13183248582580     -2.05623774691416     -1.06024517610900
  H   0.88356088173808      0.16537616554149     -1.30537237283422
  H   -1.04090171229962      1.32284656996919     -0.31642346448317
  H   2.77076299025249      2.94562309954745     -1.18511720551281
  H   1.48764792194351      5.13844557228503      1.06868205916544
  H   5.10328008318626      1.47474574155819      1.80057542257300
