25
Coordinates from ORCA-job 13459optt
  Br  1.17668714137823     -0.03954984435186     -0.00560866113806
  C   3.08071011563827     -0.08825900412852      0.08744844320561
  C   3.71888316739647     -1.28634467282288      0.22977269148816
  N   3.01311031495992     -2.45768802675769      0.36352231754068
  C   3.24455665519741     -3.62724306880779     -0.48402826651342
  C   4.48925695232117     -4.40904347039337     -0.12832645978366
  O   5.64807788741882     -3.65420753571001     -0.36627847429639
  C   5.93102629667207     -2.64651882848796      0.59946901796947
  C   5.82182710027920     -3.16403876354748      2.04789211738742
  O   6.38836737794582     -4.25856476917175      2.29323915639505
  C   5.14535540360576     -2.39075996098467      3.03423717382308
  O   4.54234290066845     -1.30820822732323      2.85202916177564
  C   5.19932026260469     -1.34735078533723      0.31002664324794
  N   5.96648170131133     -0.33591762755277      0.15368072975904
  S   5.45142475272041      1.21329825243737     -0.01116958070178
  C   3.69365066514372      1.22058135374586      0.03449959200074
  N   3.03154807798462      2.31165445880773     -0.03144710617951
  H   2.02956463741488     -2.27829187866822      0.48999995340060
  H   3.29532591968268     -3.33525832580633     -1.54030410201082
  H   2.37430379059421     -4.27407163750251     -0.35707128788677
  H   4.55326493084004     -5.28274969233892     -0.78142430828822
  H   4.45165150349626     -4.75005513715230      0.90887915558435
  H   6.98425485077226     -2.41474996275190      0.43454582930008
  H   5.19446765084582     -2.84419373816633      4.04040772277767
  H   3.65353994310738      3.11753089277283     -0.07699145885693
