21
Coordinates from ORCA-job 13457optt
  Br  1.50388671690712      0.10103720934999     -0.60788470240235
  C   3.31776622520851     -0.23537494456863     -0.28790165692889
  C   3.83077159666951     -1.50513753318011     -0.06634949300613
  N   3.06337445315930     -2.60675718256990     -0.05235480105560
  C   3.66043995429184     -3.77922148052952      0.17491993070455
  C   2.77712017236562     -4.94881935143909      0.18956417041467
  O   3.12158524792877     -6.09548151728665      0.38209751231242
  C   5.03628282506365     -3.91982191211173      0.38745394793877
  C   5.81767165148544     -2.79267491071740      0.36795648418624
  O   7.17747998125225     -2.87652555194779      0.65191908147388
  C   8.03829896428882     -2.57078647946095     -0.32964654686796
  O   7.78794710172648     -2.45328696362345     -1.48744873064521
  C   5.26440982046840     -1.51419513744891      0.15448316272457
  N   6.01859777782029     -0.42437682461390      0.17017685687956
  C   5.45187643178762      0.78773380709303     -0.03843572758055
  N   6.02208113259824      1.92462115479431     -0.03805551467461
  O   4.07120609354812      0.87101847325699     -0.29479553021572
  H   1.71791687277125     -4.69218879997978      0.00072313153967
  H   5.45779063935750     -4.90053481281350      0.56195352258469
  H   9.04182571943829     -2.47776758872967      0.10428374427025
  H   7.00767062186270      1.75954034652673      0.14434115834776
