20
Coordinates from ORCA-job 13468optt
  Br  1.53990097935412     -1.73609295168399      1.39469463865643
  C   2.86659388244113     -0.65875962667395      0.59837423761860
  C   2.65110330707049      0.73757281127420      0.51396786335842
  N   1.51956392888815      1.20336473955744      1.05345198458090
  C   0.95575236685959      2.37712180496348      1.00902965706308
  C   1.21608704792821      3.58835233143867      0.26570914938761
  O   0.38518161804182      4.49642207740441      0.28198104427046
  C   2.48470111573188      3.80886204932004     -0.51633782789607
  N   2.64516434443998      4.89587105665413     -1.16830915389578
  C   3.58986974687915      2.86369715203302     -0.49653460985114
  C   3.67935533043705      1.57912877345449     -0.09268433787916
  C   5.02809942276099      0.96720362915374     -0.32953833427955
  O   6.04191353933158      1.61065692605464     -0.38951022109212
  C   5.09483736163519     -0.55583403765089     -0.52158166658876
  O   6.02064191771307     -1.04026474964982     -1.10783008853333
  C   3.97750204281885     -1.39324846781698      0.07452701558821
  O   4.09978246667487     -2.61198711447520      0.08636703337491
  H   0.04210538273951      2.46831624569111      1.59487493808590
  H   1.79145815322401      5.45037622744735     -1.05394406938157
  H   4.49438604503032      3.28124112350406     -0.92570725258705
