23
Coordinates from ORCA-job 13462optt
  Br  2.48792224065213      0.45703583790138      1.23691786995390
  C   4.18343762262829     -0.44494037511681      1.18155928674026
  C   5.34507991863524      0.35856114760406      1.26520379106047
  N   5.75964432455196      0.82942336645928     -0.02269515411837
  C   6.22310112780617     -0.31313840041985     -0.74553373200447
  C   7.34573590522917     -0.19326862809466     -1.46381761676239
  O   8.17711445621832     -1.26771344953507     -1.82911735703123
  C   9.05705610354250     -1.27459772735518     -0.75156977670065
  C   8.89049941568110     -2.03747764910405      0.32226947473200
  S   9.49066139156334     -1.37770797966114      1.85892511543210
  C   8.16999114963422     -0.03098058979952      1.74951728772695
  O   8.43409693296392      1.05179389618534      1.31272626855222
  S   6.60610178282907     -0.66560613645427      2.16429114396516
  C   5.48816772079943     -1.62166334262403     -0.53396909217310
  N   5.76005468769221     -2.68746136703437     -1.16581877373612
  C   4.25212789315437     -1.63043902515090      0.38781965260046
  N   3.34402287181486     -2.52641420657985      0.24324348471635
  H   6.48398732882475      1.53878563796440      0.01442163357152
  H   7.82406303890515      0.77609388227624     -1.56825875982184
  H   9.76317288855851     -0.44810360119507     -0.75192919750748
  H   8.14651611572686     -2.82387025046704      0.35259145794577
  H   6.53755852997035     -2.55274945207855     -1.80701100194218
  H   3.64388655261793     -3.17356158772031     -0.48676600519932
