23
Coordinates from ORCA-job 13476optt
  Br  1.52869004997250      0.30261719077383     -1.79351181718864
  C   3.12141414062176     -0.04753135997184     -0.89017271339309
  C   3.50942322073858     -1.24086824979224     -0.44200334860076
  N   2.87357871563793     -2.47168776205185     -0.48151249354676
  C   1.63001663206483     -2.59460293812397      0.32919592385939
  C   1.93738901133504     -2.70770825008097      1.80141104579254
  O   2.73526070799587     -1.86423460668669      2.32992129724864
  C   1.32099175767911     -3.77451103725030      2.50002945974668
  N   0.79200383797966     -4.66088245496213      3.04300982790988
  C   3.90768542202232     -3.47779501788512     -0.19134085358627
  C   5.01270013155944     -2.73285409700583      0.56614488414011
  N   4.79224557938566     -1.36573889962827      0.10058077912255
  C   5.65930912090104     -0.35044567945806      0.28742284549104
  O   6.75979353778513     -0.46466926234806      0.77437053072539
  C   5.14859119960755      1.01714633991382     -0.18878335022990
  O   5.80162341971871      2.00805316393725     -0.09910679167575
  O   3.90755693365954      1.07027548463498     -0.72730710975297
  H   1.07219355721305     -3.45830132178197     -0.03596581274568
  H   1.04382791150357     -1.69781674649551      0.11737328172880
  H   4.29073857456451     -3.88472252127160     -1.13005477987810
  H   3.47770094027502     -4.28026773564275      0.40457559454525
  H   6.02059663132622     -3.04983600459912      0.30628276365683
  H   4.85966896645278     -2.76161823422349      1.64444083663077
