22
Coordinates from ORCA-job 13470optt
  Br  1.16043542251258     -0.14838632793939      0.28204267255261
  C   3.00460314305351      0.12032723808938      0.21120090685365
  C   3.62754644906244      1.30243055342995      0.06696406385022
  N   3.19479426905284      2.61108609654858     -0.10885062999090
  C   1.83503272832229      3.12946558155515     -0.12252843401150
  C   1.18872503290525      3.25147606234674      1.24345873173916
  O   0.02131686852063      3.73841390958437      1.30531618480082
  C   1.91263769809500      2.72583946417300      2.34072698933188
  N   2.52420143458225      2.26626222523752      3.22189914156891
  C   4.29542426832934      3.40235272022834     -0.08306983636942
  C   5.45815719311707      2.69179092238710      0.04253629838294
  C   5.07820419877438      1.32352686322390      0.14333408130594
  C   5.75781176136348      0.15184759580646      0.29104390716727
  Br  7.63992711035030      0.15208298629454      0.40244546256534
  C   5.07724124581778     -1.11423589398679      0.37037325826957
  N   5.51667406457041     -2.30114132329779      0.46151216523523
  O   3.68930066736191     -1.01761945583942      0.34335328784642
  H   1.22018706814014      2.49940712922164     -0.77236310625853
  H   1.87823235229079      4.11511821952022     -0.59830176575745
  H   4.16214600170541      4.47036130511647     -0.16770272872316
  H   6.45853792130805      3.08491025681394      0.07347617818816
  H   6.53086310076402     -2.29031612851395      0.48013317145283
