24
Coordinates from ORCA-job 13472optt
  Br  0.95821864170117     -0.26077123042532     -0.10377238252434
  C   2.82381140399989     -0.09929282271185      0.02955817630589
  C   3.66047832875399     -1.19844150093942     -0.00600368070239
  N   3.32007550706053     -2.49861215960400     -0.10890485754994
  C   4.49587017316070     -3.17755323857077     -0.09655676730632
  C   4.56773760875930     -4.59294160288969     -0.14090583043928
  O   5.61166314378035     -5.26578430327295     -0.12620806559629
  C   5.62756073225716     -2.29083183425906      0.00436152742881
  N   6.96551689297000     -2.71707492411305      0.00710217113740
  C   7.83071844155958     -2.18854899814464      1.04751471223106
  C   8.65145893330213     -1.04835793776112      0.60761568705281
  C   9.30968200509801     -0.10902561684240      0.25601240821537
  C   5.09497851677672     -1.03432035884221      0.05970800024363
  N   5.73549240553135      0.20928909161496      0.10270071087295
  C   5.14790029256769      1.43416331735798      0.17508390272155
  N   5.74351588185923      2.56648492441460      0.21144963201145
  S   3.37622167144427      1.54426814445298      0.24855875784185
  H   3.58596664156627     -5.09642617504566     -0.18567665705278
  H   6.97092540825624     -3.73248468484165     -0.01680315336999
  H   8.51345049752319     -2.97690878049235      1.37105394771182
  H   7.25637293075623     -1.87640318938717      1.92904923984917
  H   9.89663517389247      0.71662333846974     -0.06727695030162
  H   6.74188909603550      0.21833179327032      0.00077112126745
  H   6.75485967138793      2.44061874856274      0.20756834995174
