28
Coordinates from ORCA-job 13475optt
  Br  1.75205205474792     -1.19095169800622     -1.47143897155844
  C   2.66709532988381      0.15060916371111     -0.43958710626706
  C   3.00123008917843      1.35053858530965     -1.01906950973792
  N   2.41477755448028      1.81715650205594     -2.22651386244109
  C   1.05526122182081      2.35250968233335     -1.99575710635070
  C   0.98680448554180      3.46113563990841     -0.93803666092799
  O   1.09213693664778      4.62602166409238     -1.24874188679843
  C   0.68992506723112      3.04661943162843      0.50187911608063
  N   1.04856508292166      3.99369738681018      1.54341735118632
  C   2.45563145854391      4.41424846750427      1.61005994924027
  C   3.42631309119015      3.34331439204768      2.13218332464209
  C   3.45656016983038      2.12003766636193      1.25434024826599
  N   3.07903939698011      0.97738731889239      1.76823259718385
  C   2.83633597969428     -0.07034583708769      0.92684549735727
  C   3.68687477178322      2.28540669472480     -0.14801647371523
  C   4.35199907460376      3.39161225833856     -0.69400258201740
  N   4.89022012706456      4.29268456052148     -1.19213347438494
  H   2.98597122758672      2.56545297146438     -2.60826603078073
  H   0.41905636524210      1.51303644616466     -1.70317732370485
  H   0.68756119712606      2.77069745446521     -2.93343895678013
  H   1.11319549609451      2.06284801251326      0.70483946416782
  H   -0.39830825653490      2.90062886186098      0.53715778289221
  H   0.49623027505751      4.83081777270870      1.40158011931036
  H   2.81322287061085      4.78810996450138      0.64621712643596
  H   2.48394243498811      5.25537271471851      2.30696428853297
  H   3.14814744350394      3.03139832997340      3.13897446673647
  H   4.41727765462269      3.80982044649913      2.16751007056538
  H   2.64588139955839     -1.03786485401633      1.36897854286731
