26
Coordinates from ORCA-job 13484optt
  Br  2.98339361270910     -2.12513165124869      1.78655027996421
  C   4.20101901665245     -1.59532272411579      0.43083839903439
  C   5.57670593890122     -1.50330971075699      0.72648704199318
  N   6.43027922760032     -0.82239744857588     -0.09424483103186
  C   6.20287847063052     -0.44839913522584     -1.28380716749578
  C   7.39140321192747      0.09970361654043     -2.03949895675362
  O   8.52094862462675     -0.75309163144881     -1.85647845694661
  C   9.02081395704544     -0.86978622906709     -0.57311880935840
  N   9.63767007052276      0.04601943333437      0.03319489604312
  C   8.87129811551357     -2.26560131912936      0.00486295011977
  N   8.80050097292453     -2.35871748701946      1.44811507730789
  C   7.71623505427575     -1.61297476164586      2.10924407519793
  C   6.30044422211698     -2.14912034795508      1.81879278567399
  O   5.86402479663327     -3.06696186298409      2.49968955209737
  S   4.68610014797280     -0.68246968302826     -2.13589284880367
  C   3.58375802742327     -1.17687425441069     -0.77905149372240
  N   2.32047444488102     -1.16480920040556     -1.02429272447996
  H   7.62974230596243      1.11413488676000     -1.69975914768763
  H   7.20719078615775      0.12772518423663     -3.11300355908388
  H   9.65721830016766      0.90064148732056     -0.52225913878240
  H   9.73207121676524     -2.85426755271879     -0.33016009281535
  H   7.98466736559222     -2.71610343885425     -0.43748883091360
  H   9.67628583978959     -2.02760561152638      1.83530564026464
  H   7.76782592480456     -0.54346528939457      1.89005010050262
  H   7.85464192607379     -1.76845529074040      3.17962775440507
  H   2.13040842232903     -0.82035997794008     -1.96170249472904
