25
Coordinates from ORCA-job 13489optt
  Br  1.31313283749438      0.01376387744664     -0.91812932776878
  C   3.15572294413001      0.04234555098673     -0.39892081396957
  C   3.87382933711441     -1.17357701109877     -0.38585684438889
  N   3.37438559038889     -2.45623317683349     -0.74449762741861
  C   3.69807534900728     -3.47867560169624      0.24181277855176
  C   5.18072329253941     -3.45866567214881      0.58935759445538
  O   5.65820623700618     -4.24587749744525      1.36427863084332
  C   5.99259655266072     -2.37096561942407     -0.11327952774691
  N   6.18076692273505     -2.79000263216337     -1.49892189437122
  C   7.30183936085234     -3.36236017897927     -1.97762231563855
  O   7.45689094303490     -3.75071480400938     -3.11630907581642
  C   5.22935623861598     -1.06627041452127     -0.04722572625132
  N   5.85883076996884      0.02786275284483      0.30513549089655
  C   5.13833284875091      1.20224209605945      0.31850596470330
  C   5.78297575910047      2.40888566447348      0.70241223134719
  O   5.24645117571757      3.53428164916697      0.74922608990746
  C   3.75774837283503      1.21221731417834     -0.06316906677160
  H   2.38409560785171     -2.42428514365649     -0.94447050317014
  H   3.45366725639777     -4.47215905792998     -0.13876542656864
  H   3.17075290105087     -3.33602417982831      1.19500125243547
  H   6.96331741740140     -2.26921932023278      0.36797136545302
  H   5.39025621390085     -2.68339639558573     -2.12274754682565
  H   8.09342764068637     -3.44422945391393     -1.21374970338374
  H   6.84664159289990      2.27963362068362      0.97032998657557
  H   3.23297683785864      2.15742363362710     -0.06436598507899
