21
Coordinates from ORCA-job 13486optt
  Br  0.92155733991464     -0.40275411213612     -2.17230092578691
  C   2.04147784409215     -0.82379937904332     -0.70436427067197
  C   3.14515016668104     -1.60916645917355     -0.84728038622143
  N   3.35072518349204     -2.43073638433267     -1.96960948766052
  C   2.60025143810785     -3.43787152077948     -2.10857438525307
  C   1.44660410273677     -3.96911595262918     -1.23716222706382
  O   0.99922438329563     -5.04568032466416     -1.53566419813929
  C   0.89169850475484     -3.13026166817979     -0.10312106948261
  N   -0.17268030982828     -2.48867474219897     -0.31058421722474
  C   -0.57840824243900     -1.40116266505935      0.56005109603026
  N   -1.82231799170634     -1.24292308018503      0.81187511182784
  N   0.38400747699123     -0.59132518051359      1.10683133353459
  C   1.61788931040739     -0.52178690267333      0.63084754069468
  C   2.70838766556856     -0.42742304222207      1.56419674257655
  N   3.89153366399027     -0.93486012565428      1.38480933235441
  C   4.13692797597849     -1.68459924830210      0.24420564433185
  O   5.13699177095506     -2.38976464456654      0.13146161104458
  H   2.75293163500461     -4.09378684594990     -2.96598438827088
  H   1.51731935154611     -3.02987099195158      0.79069518485041
  H   -2.33959995039659     -1.96777750649846      0.31992798432261
  H   2.47932868085352      0.02034077671346      2.52874397420748
