24
Coordinates from ORCA-job 13485optt
  Br  1.27606083452117     -0.21730595264532      0.78394778118374
  C   3.09760089202925     -0.11649119986862      0.26550572015693
  C   3.75836888482520      1.03376004359193      0.09647124906813
  N   3.36474572331667      2.37862619215403      0.21196001036106
  C   2.04542054115205      2.85225265777336     -0.11605608190430
  C   1.15054234802935      3.04983537419425      1.09367828524862
  O   0.06918969295196      3.56328557414989      1.02286538954414
  C   4.48853603710467      3.18268520028932      0.05177988590034
  N   4.58104851879344      4.44861959718531      0.03811202935218
  C   5.66356294147013      2.26772983581414     -0.12727705073732
  N   6.88872897883438      2.59652287945918     -0.23967618031837
  N   5.13441569372726      1.00823547596108     -0.12736258194582
  N   5.89546465810505     -0.13311512074615     -0.13130112199827
  C   5.20014359752128     -1.27440381799005      0.00719731520101
  N   3.77429095498801     -1.32596377552764      0.24968004177296
  C   5.80855830483018     -2.51114221181097     -0.05845591998650
  C   6.25291670126109     -3.64370675980749     -0.27307400214968
  H   1.54974736930646      2.15849749575916     -0.79844811796941
  H   2.12508610101596      3.81143010171358     -0.63452963360384
  H   1.57028461099770      2.69456511508262      2.05326467307217
  H   3.69121174586512      4.90963283594289      0.21208517271037
  H   6.92983836300281      3.61376436559243     -0.19036600723658
  H   3.32785942762295     -2.04378007751952     -0.31088221219800
  H   6.73837707872769     -4.50253382874746      0.14588135647644
