25
Coordinates from ORCA-job 13498optt
  Br  2.05850913555807     -0.71333674565830      1.65769922517032
  C   2.85213725298458      0.05927474173723      0.11062951181892
  C   2.75026560198188      1.45327702481262     -0.10801519557752
  N   2.08170232665684      2.24739797117461      0.85624975800740
  C   0.62499757002715      2.21623642385877      0.96170339918683
  C   0.00835929654199      3.60035246021769      1.09735338810299
  O   -0.01064583323706      4.36559295511819     -0.11265282701684
  C   1.23479635869553      4.76618849320298     -0.52164952543233
  N   1.78005680017817      5.78791368665905     -0.03348999021812
  N   1.75104718333937      3.86645076612110     -1.44780843964562
  C   3.12149376673240      3.53092611755499     -1.42360700160394
  N   3.99718774279614      4.43866588042819     -1.55075891123374
  C   3.37185507465913      2.07260095110986     -1.20761227505696
  N   4.21467458370508      1.53373985324159     -2.08913634926295
  S   4.52298941959457     -0.09570620584451     -2.04423479929143
  C   3.58483508370851     -0.84270312542899     -0.69336977862699
  O   3.70474393943109     -2.05244931770566     -0.57596719059388
  H   2.46369273402963      3.17790439548420      0.93344896701862
  H   0.31900705958934      1.63220933462548      1.83586555964119
  H   0.19543322218066      1.71316756520074      0.08748451730154
  H   0.52952466588510      4.17835110742367      1.86795052366715
  H   -1.03775217284941      3.50192082353084      1.38395103769740
  H   2.69143217372443      5.92304334240824     -0.47141185022723
  H   1.15936163138796      3.05344802406048     -1.53950199795016
  H   4.91629538269881      4.00553347666688     -1.47111975587464
