26
Coordinates from ORCA-job 13506optt
  Br  1.14293620854121     -0.02651870222034      0.01856947676336
  C   3.05715258311353     -0.17823180522790      0.08041514878200
  C   3.64921054844983     -1.43122621714265      0.06683019159933
  N   2.85689202576849     -2.57679373826550      0.07279522148213
  C   3.35191102952564     -3.75850897459052     -0.59519624049319
  C   4.31108668316582     -4.52374294071135      0.28757871645688
  O   5.59491292630973     -3.97423847173349      0.39270174301862
  C   5.88309162579795     -2.63403369682598      0.63230227501469
  O   6.92658680853345     -2.45095382570193      1.21655027845710
  C   5.07873569675121     -1.52773674932596      0.11716433368156
  C   5.78336812697808     -0.27931751963225     -0.05256780025384
  C   7.17430437368131     -0.04097235688447     -0.43325546161167
  O   8.02387698036037     -0.78845589217751     -0.87660924493355
  N   7.39723097680052      1.34566442981409     -0.27773674190929
  C   6.13973697282990      2.06284331140352     -0.15478385810046
  C   5.13634008845318      0.94806862453794      0.00539530224411
  C   3.76934323481292      1.04754712254783      0.11860837591987
  H   1.88710599069403     -2.37837657162280     -0.11147418914591
  H   3.84721252058111     -3.51826032253998     -1.54494739142231
  H   2.49740397241260     -4.40557332845597     -0.80460951026370
  H   4.46610994288207     -5.52468713862189     -0.12376236934832
  H   3.85912958332852     -4.62289665652993      1.28184948034851
  H   8.11336910618012      1.71633813555090     -0.88221939944108
  H   5.92039364760436      2.66094252466347     -1.04563175290564
  H   6.13708554211237      2.73290399466095      0.71034103440472
  H   3.24447280433156      1.99121676503174      0.16069238165610
