23
Coordinates from ORCA-job 13504optt
  Br  1.06630829245787     -0.82482063203374     -0.41360178482456
  C   2.95306943789806     -0.69739429075195     -0.15094981156675
  C   3.86337271616047     -0.75571055104811     -1.24997569355581
  N   5.11995178854207     -0.10772808462321     -0.95549268910182
  C   5.75329530303583     -0.86352081693202      0.08874541916926
  C   4.95738917065803     -1.46625149676447      0.96957961056971
  O   5.40288918501603     -2.56667835933974      1.70101588376187
  C   4.95281899220007     -3.71267971644874      1.06107120427213
  N   3.89981413160837     -4.31970510550455      1.34442054466419
  S   6.10179628229707     -4.25239406579862     -0.19785187205984
  C   5.09607063564067     -5.06057718208169     -1.49534524591438
  O   5.48708003175490     -6.12095057902945     -1.92054314591522
  N   4.02828533324327     -4.40104376641092     -2.01461897100053
  C   3.50272974527766     -3.14467177574372     -1.60725263896214
  C   4.07455998884972     -1.98137100301649     -1.97739326410689
  C   3.47198574061828     -1.17800213968727      1.07170552476544
  O   2.86327793936299     -1.49925327491890      2.10573813348046
  H   4.96845010240743      0.86238433496269     -0.69125176923412
  H   6.82128485861306     -1.03927957228333      0.03813925246867
  H   3.37946720718343     -3.76049065297201      2.03085786711560
  H   3.48435681065801     -4.99800766714604     -2.62387265001549
  H   2.69654728224183     -3.18141785426713     -0.88548907629023
  H   4.90619902427484     -2.00643574816055     -2.67563482771956
