24
Coordinates from ORCA-job 13517opt
  Br  1.62411607657531      0.26422625133592     -1.92908190050033
  C   3.17319294846802      0.11949464657392     -0.85103847315904
  C   3.76367956315760     -1.13487716160402     -0.58301218521571
  N   3.16730769534793     -2.36078883343524     -1.00707384310454
  C   2.16198997181582     -2.99241706111359     -0.12407511340238
  C   2.84335119479794     -4.13309353770482      0.65276306082923
  O   4.05286685168889     -3.62034745566734      1.17669916344704
  C   5.09721034500671     -3.64457784695369      0.30063248202070
  O   5.38673584378822     -4.62305605170959     -0.32908298986618
  C   5.84480584646438     -2.34541069381565      0.30071403143332
  C   4.98478668415261     -1.11562800667193      0.09553910330550
  N   5.56466508113797     -0.03411523213809      0.57686489163515
  O   4.88761927524793      1.18116459135513      0.38725776328254
  C   3.73680685108885      1.32409660022770     -0.37311557123771
  O   3.33340150517647      2.46212431538045     -0.52298105992064
  C   1.49145641948352     -2.06928445562315      0.79887767705955
  C   0.95479485617735     -1.32211955454120      1.56512557301065
  H   2.74967816170691     -2.22146169849215     -1.91805217515635
  H   1.39747665382588     -3.43952443465795     -0.76629080362394
  H   3.05708660594982     -4.96868125808554     -0.01484132643128
  H   2.23125385008035     -4.46399769166031      1.49004974320796
  H   6.61542809582839     -2.41161258237082     -0.46640812369043
  H   6.34118806806369     -2.23704066830567      1.26856861481115
  H   0.49810155496908     -0.62307218032215      2.22296146126573
