24
Coordinates from ORCA-job 13511optt
  Br  1.25313796857729     -0.11694046588891      0.97049728675086
  C   3.01191430900003      0.10296279334486      0.32533656167230
  C   3.52421469224821      1.37540915328068      0.02242945704721
  N   4.85341863937683      1.44777168434566     -0.48531834290316
  C   5.74811716436710      2.46762989470269      0.03602726493424
  C   5.57992012111353      3.93566588730256     -0.34218998951198
  O   6.55122852738589      4.64340340367531     -0.39393049584141
  C   4.16698746781659      4.50631809912310     -0.49126123352347
  O   3.28170612059144      3.51134672471581     -0.93623776624112
  C   2.84749979975776      2.62428282030213      0.08177196231680
  N   1.95224081919718      3.01083908575176      0.93199060398527
  C   4.13958354659646      5.64824351131184     -1.40292307106943
  C   4.10010094127390      6.57119842086055     -2.16319685315756
  N   5.55542868106140      0.33475931838164     -0.81851268513323
  C   5.01317428082798     -0.80793119217556     -0.64777433841189
  C   3.70837203419182     -1.08059324165414     -0.01879212697276
  N   3.27691742339897     -2.29730334113859      0.16354953095395
  H   6.75608627409373      2.19820938731277     -0.26925293829111
  H   5.71619556413730      2.45726721893053      1.13707445913348
  H   3.86726186439444      4.84844416320561      0.51218231809898
  H   1.55258080446991      3.89227237678149      0.61328067381764
  H   4.06720447122339      7.38871961507528     -2.84127450989200
  H   5.60755425509712     -1.66054351526540     -0.96611449353167
  H   3.96815422980164     -2.95143180228175     -0.19936127422992
