24
Coordinates from ORCA-job 13510optt
  Br  1.00450522052850     -0.15620457928986      0.00671479551711
  C   2.91879073046557     -0.10105552540982      0.00452211072863
  C   3.61888697070771     -1.30430148306396      0.31639126328790
  N   3.00490420247465     -2.53260126990701      0.65452478569258
  C   3.06655145314303     -3.55203620758494     -0.37989210999297
  C   4.44318432864279     -4.14278052592696     -0.62870301953390
  O   4.53646623187170     -5.24661928254391     -1.11018154933176
  C   5.72340065838287     -3.34241330047096     -0.41099520487247
  O   5.71074502106743     -2.36605454453080      0.59998751893682
  C   5.00048213629626     -1.23206409978951      0.28913342273546
  C   5.69799103973219     -0.06572383103835     -0.04025064004845
  C   7.11292867531949     -0.11831936941400     -0.09456901921254
  N   8.26578364396222     -0.15115975312804     -0.15486046018159
  C   4.96779542955147      1.14526865277641     -0.32830203901467
  C   5.58823263269529      2.38221889723438     -0.66372742743174
  O   4.98333912615794      3.43349278516794     -0.93620817522184
  C   3.54786510248736      1.06649757590037     -0.28742665307672
  H   2.04416750111666     -2.38376185196135      0.92949398255443
  H   2.73319675615003     -3.17334873709606     -1.36063557644951
  H   2.42138555117923     -4.38969112121564     -0.11325824681342
  H   5.97541689535542     -2.88507597453458     -1.37795185586812
  H   6.50548971501726     -4.05856059247542     -0.16415893680445
  H   6.69235421056446      2.36623742629603     -0.67498715077226
  H   2.99513676713041      1.96805671200607     -0.51465981482652
