24
Coordinates from ORCA-job 13521optt
  Br  0.60444025549583     -0.14958371351445     -1.41003382118148
  C   2.97095995308298      0.62200508691744     -0.70121076493079
  C   3.78020446056381      1.69671890367731     -0.42654245032178
  N   3.64910763452038      3.01683194330325     -0.73728930812066
  C   4.71514442450197      3.59710849483628     -0.19273621115248
  C   4.89961266360230      5.08148018689891     -0.34518407170293
  O   3.67577151604036      5.65510133862352     -0.80466420848494
  C   3.40956255663612      5.46700366833531     -2.10293816270455
  O   4.22478652950709      5.35078884580651     -2.96752840916958
  C   1.90837297298964      5.39993430378638     -2.30786475531440
  C   1.47981947459132      5.86996188876457     -3.61883472254601
  N   1.11000655747908      6.26782973828366     -4.62737291616671
  C   5.58665730167085      2.71775846679945      0.48309340518242
  C   4.99166093013066      1.47056976883189      0.33963162308169
  N   5.36711707163821      0.23603167543273      0.78281553689558
  C   4.56228181648396     -0.72716635349168      0.48026524594327
  N   3.40851285471765     -0.56164231970589     -0.22974227550511
  H   5.70160597126369      5.31471081982397     -1.04758256982855
  H   5.11075972964184      5.55621750492816      0.61181400307165
  H   1.39521494335762      5.95919260483121     -1.52758224088313
  H   1.65848261866037      4.34184692540083     -2.17510530956585
  H   6.50180499708361      2.95908921474378      1.00058182614458
  H   4.78027221316164     -1.74238271349252      0.79190632336618
  H   2.79584055317880     -1.35240627982073     -0.39789576610637
