25
Coordinates from ORCA-job 13520optt
  Br  1.45317793552201     -0.30790006590833      2.05614299228802
  C   3.11960077991405     -0.41966322094229      1.13007618713045
  C   3.50256871887535     -1.51022753757737      0.46241095274943
  N   2.78723646441510     -2.73369494589741      0.36904168591106
  C   1.51437017700121     -2.78468247124116     -0.32501853109019
  C   1.56007265620389     -2.05288310124562     -1.65067130920066
  O   0.57724564935138     -1.88621316026827     -2.31917744153995
  C   3.52993511977789     -3.87764415231499      0.50814004160085
  O   3.10495727131527     -4.99018100671054      0.26314644432364
  C   4.93430691929620     -3.59636971810314      0.99768982094468
  C   5.64281443322243     -2.57279685832761      0.10217599403842
  N   4.71803331159367     -1.48852624007098     -0.23592973668480
  C   5.28796613670777     -0.21064037537933     -0.57665317137882
  N   6.24474105302709     -0.12957321809501     -1.47710532673700
  C   4.81000057905519      0.95098289779484      0.09047767364909
  O   5.09591832240478      2.12108252536742     -0.05060585185766
  O   3.81167884305734      0.70365193471532      1.16218923940966
  H   0.70935402916899     -2.36176115064082      0.27696619704807
  H   1.28307269281595     -3.83381518668699     -0.51852422265818
  H   2.55506687504990     -1.69420436507329     -1.97648178703932
  H   5.47795046205544     -4.53690837067024      1.03490094314669
  H   4.85525153144929     -3.19095051485489      2.00971812137993
  H   5.98984484373049     -3.06412127501620     -0.81010859584726
  H   6.52247763773723     -2.17020026196837      0.61545962711756
  H   6.38635755725200     -1.04676016088467     -1.89525994670374
