27
Coordinates from ORCA-job 13522optt
  Br  1.70835873897504     -2.24866316055833     -1.22325866883849
  C   3.42661753361490     -2.00734735077922     -0.40725716896196
  C   4.50359025233020     -1.67139946281565     -1.24783043532470
  N   5.68213562709533     -1.25259456600867     -0.57418121184004
  C   5.92519717995775     -1.71609569370425      0.70560089662298
  C   4.92619118142297     -2.20899102499949      1.44994283078110
  O   5.23069185621342     -2.84213455080003      2.63649446420951
  C   4.79284044862125     -4.18446005524350      2.65877188898207
  O   5.34004097541047     -4.96508110871970      1.62824084512783
  C   4.55836898907729     -5.11784981986978      0.44976543673520
  C   5.34225413456194     -4.63700491287723     -0.77019977925493
  N   4.51592499746787     -4.58929061152315     -1.95954419607778
  C   4.40425418745044     -3.58791755447200     -2.89123613502717
  O   4.05460277137761     -3.85063109256098     -4.03497530336238
  N   4.69590730102812     -2.27954863410399     -2.53278596464858
  C   3.50752018766958     -2.18108162652719      0.98406311839053
  O   2.57058029147675     -2.39870539319240      1.78545571193040
  H   6.47267227731607     -1.03368761139722     -1.15388360116379
  H   6.94916290155614     -1.71740477633215      1.05931019342524
  H   3.70181383614544     -4.20671040348558      2.61813113432190
  H   5.17132133681702     -4.58316755128760      3.59888045309607
  H   3.61989491602947     -4.56510234305235      0.51544460758757
  H   4.31945400495591     -6.18216144771829      0.33639742510060
  H   6.19808686425010     -5.30206167713815     -0.93279484738142
  H   5.73909995897513     -3.65128527872489     -0.56781155079584
  H   4.27003022468343     -5.47165555649275     -2.37945293242266
  H   4.48038702552025     -1.69596673561538     -3.32928721121124
