22
Coordinates from ORCA-job 13524optt
  Br  3.15852133426199      1.00269527526323     -2.40314415432915
  C   4.05297794418472      0.72944104322227     -0.68934003135413
  C   5.20155053918298      1.46866583486594     -0.38112452116485
  N   6.11127647011120      0.77803274305906      0.47956371179495
  C   6.41795637388405     -0.54197615958291      0.15474022060965
  C   7.62135936643240     -1.11953499105435      0.06903676884780
  O   8.82579673139903     -0.43433298637565      0.19688800516659
  C   9.09823760647849      0.39394569924955     -0.90969695529693
  O   9.45524950519283     -0.06101887333213     -1.95101194502132
  C   8.74279890936429      1.76807713061174     -0.56113904073921
  C   7.69553920704797      2.26713555840559     -1.23290793285301
  O   6.87243489321240      3.17113465378268     -0.68656890114649
  C   5.46512385197549      2.78575060068295     -0.83260329959008
  O   4.71988033951621      3.61454630191668     -1.31121147142293
  C   5.19596633453120     -1.38149489079297     -0.06236127340639
  O   5.16599914762269     -2.59399654401057      0.05426994119702
  N   4.08815814392162     -0.63637222281898     -0.34462970815635
  H   6.87727500110018      1.33003228780880      0.82312566456483
  H   7.70434274373441     -2.18658874055525     -0.07640026220093
  H   8.91139251271422      2.08335599803033      0.46039050632484
  H   7.38403388878873      1.84618209752936     -2.18688214368865
  H   3.24212915534280     -1.17367981590537     -0.46699317813526
