21
Coordinates from ORCA-job 13536optt
  Br  0.98491743354173     -0.06664453983780      0.33906243106636
  C   2.81684294401517      0.15469933433188      0.10000523271685
  C   3.49166382584663      1.30325880685412      0.21103995346548
  N   3.20324678594629      2.62245609237125      0.52812259605312
  C   1.89254500003102      3.23895776420370      0.34678104337828
  C   1.44922468487240      3.05365709103254     -1.10842202907533
  O   2.33500407679887      2.91407263643538     -1.99135999304135
  C   0.04337503366874      3.04477123507247     -1.32276458632249
  O   -0.81893847790871      3.15268791387984     -0.41495920615562
  C   4.35344658416815      3.36782299208124      0.38680901391491
  O   4.50536170580036      4.55297910680135      0.51313477913179
  N   5.38896864559526      2.44993765442822      0.10212020855718
  C   4.90306988764297      1.19918460393396     -0.04386240270246
  N   5.57578291855486      0.13257605980475     -0.33563330859152
  C   4.86499469046066     -1.03153027012522     -0.42621933815824
  O   5.30879141241318     -2.11462762332203     -0.66524691119546
  O   3.46820500418147     -0.97536143540872     -0.21477511215877
  H   2.02072754653671      4.29443742958388      0.59036572744205
  H   1.16814943026406      2.81419590155551      1.03834059373529
  H   -0.25586022594561      2.92236372515945     -2.37838145379094
  H   6.33748109351573      2.73710552116420     -0.07015723826912
