25
Coordinates from ORCA-job 13531optt
  Br  0.96931944740361     -0.22121349263506     -0.21773702793006
  C   2.85830792745096     -0.04027579378256     -0.00132857781589
  C   3.60961856982184     -1.21725936314512      0.23706720442377
  N   2.98346419796713     -2.48102913135658      0.35895529339171
  C   3.81270176628233     -3.56233288270807     -0.13087412273526
  C   3.02436810859582     -4.85231054804648      0.01039302253077
  O   3.67288558251505     -5.95344048420327     -0.64883521786247
  C   3.45979722697737     -6.08914726635972     -1.95508343456919
  O   2.75313537545856     -5.40311531512189     -2.63163737303999
  C   5.10326390023229     -3.56324007049306      0.67387317877892
  N   5.72129975918297     -4.56256533000528      1.14437123765546
  O   5.63494973839515     -2.35402741737022      0.87580398878187
  C   4.98328996589971     -1.18699245478589      0.45277238625033
  C   5.77272258382843     -0.06527511939049      0.40695543347021
  S   5.14732555915689      1.46784820867382     -0.12637325193237
  C   3.35195385876451      1.26903799152030     -0.14945376990607
  N   2.64185486948317      2.32868032641134     -0.36716350170070
  H   2.07038703470377     -2.46894306018953     -0.08036731776190
  H   4.08749692822970     -3.42109836228577     -1.19008767965737
  H   2.03013301148926     -4.71924487111736     -0.41536390469230
  H   2.94554329649234     -5.14036896483480      1.05651789385867
  H   4.03248625427456     -6.94808414897818     -2.32632748827185
  H   5.24673482984800     -5.42464968698184      0.90081562812241
  H   6.81195092122895     -0.09751594481098      0.69334658115908
  H   3.23500928631756      3.14956318199675     -0.45123918054777
