20
Coordinates from ORCA-job 13539optt
  Br  1.49085677333474     -2.14547799216404      1.09085615688142
  C   2.84113912342279     -1.00936342141736      0.46411488776048
  C   2.58669686765381      0.29215040048650      0.11548496308165
  N   1.33175831216205      0.79407228875046      0.22549706969160
  C   1.04216651409473      2.07645168277549      0.42431056052195
  C   -0.40396316139688      2.25992191343266      0.69887745463405
  O   -1.00828863638573      3.28008673986265      0.91667678183566
  C   1.90594027586215      3.23024267465353      0.43460936043269
  O   1.68567411326466      4.25806469663208      1.07178531982600
  C   3.06658620196076      3.29440267188386     -0.55085193750629
  O   3.48150848445234      4.31533732628058     -0.99395711921250
  O   3.63578989512376      2.13156569206569     -1.06882662904289
  C   3.76420686174133      0.94147431177193     -0.44188344670381
  N   4.94245876178943      0.42887714324981     -0.52755030492094
  C   5.18745935447757     -0.84735500838335     -0.06812254832519
  N   6.32705136748993     -1.42584729263959     -0.02431855007536
  N   4.07532390385115     -1.56362228521349      0.35915946487582
  H   -0.92867592109725      1.28389388447737      0.65236605515118
  H   7.02478978927928     -0.78418753159032     -0.38678101542848
  H   4.23952111891932     -2.50768789491450      0.67155347652296
