24
Coordinates from ORCA-job 13534optt
  Br  0.65382730640051     -0.55410670405570     -0.58746663403062
  C   2.97616470862238     -0.30421856141207      0.43803220878256
  C   3.65245692635188     -1.52783955695445      0.49406049941031
  N   2.95980622909655     -2.75404431784174      0.66112013107957
  C   1.92366201506155     -2.84109543619590      1.65911530449758
  C   2.47826451680110     -3.27298795326160      2.98946120687944
  O   3.64321914758973     -3.45557181122152      3.21839263524503
  C   3.33632037447324     -3.90839012968071      0.05789096913594
  O   2.85534319679803     -4.99464286258521      0.31661761856341
  C   4.46489175411978     -3.84242431734854     -0.99507060341133
  O   4.25434232618738     -4.14073522098420     -2.13566687115742
  C   5.85241189258457     -3.50533872427186     -0.45799243396111
  N   5.81280531425244     -2.65959914318115      0.72357222028530
  C   5.04131359379164     -1.48527839579183      0.47374814431342
  N   5.69896040635406     -0.35865608437317      0.19332326165031
  C   4.95351025209831      0.72425109238687      0.04805832278999
  N   3.63298298211226      0.81067933603118      0.21345969921526
  H   1.15935741965803     -3.55351198371602      1.34403542283312
  H   1.43231079754045     -1.86796569284420      1.75083268924435
  H   1.72124803486861     -3.40793428258035      3.78645908519929
  H   6.41127678317621     -3.01542879772169     -1.25654407035087
  H   6.35405657225726     -4.44742266471245     -0.22083615448488
  H   5.38403583443348     -3.16172620417450      1.49917405531851
  H   5.47543161537048      1.64298841649088     -0.20177670704719
