22
Coordinates from ORCA-job 13538optt
  Br  1.01749996921115     -0.13135062059594     -0.10496359422371
  C   2.91010419736949     -0.14832511894255     -0.03438338866306
  C   3.56205420856003     -1.38520586537238     -0.01064474820254
  N   2.94992277058600     -2.58950100210070     -0.11096949215518
  C   3.72097600648229     -3.77056167461351     -0.43007208899356
  C   2.83975805185067     -4.99229785456049     -0.14432718452671
  O   1.90127117521059     -4.85608196905152      0.68515471088798
  C   3.13715407652783     -6.15859527680246     -0.89849370183746
  O   4.03225516978101     -6.23824567858581     -1.76994372143608
  C   5.02863652518800     -3.76111327683229      0.34100790576961
  O   5.59128859423127     -4.66976602379655      0.85133012452226
  O   5.64456249184396     -2.51541543896415      0.39481662462730
  C   4.96624736797357     -1.36707817779643      0.12160611278935
  C   5.65870579887064     -0.16901608642350      0.09172845631980
  Br  7.54462090465085     -0.18686665532295      0.23593263397595
  C   4.98937604881802      1.04492052996969      0.01743241918151
  C   3.60455162844600      1.04851078261660     -0.01686733257479
  H   2.06769719275979     -2.80076644839161      0.34768000650990
  H   4.00859113377633     -3.78719559499383     -1.48881166751812
  H   2.49311944060468     -7.02347246100012     -0.66262834971909
  H   5.54850467831860      1.96901097677227      0.00593182548585
  H   3.05910256893913      1.98141293478827     -0.04851555021920
