21
Coordinates from ORCA-job 13530optt
  Br  1.04926889040197      0.11535597338659     -0.08179238803323
  C   2.92392660997616     -0.07689098050125      0.00579578395528
  C   3.43844165382267     -1.35092632791335      0.18015969081284
  N   2.66425311324916     -2.44704539887662      0.30190800837049
  C   3.29825165812720     -3.61869590243708      0.48061794096206
  C   4.67009578706525     -3.68254264878672      0.52668567605461
  O   5.29911296765296     -4.92282665944852      0.77111292238030
  C   5.67325914269017     -5.62711521235521     -0.28302603984580
  O   5.56342911578417     -5.37305266069185     -1.43932814484039
  C   6.28327514898018     -6.90334213696136      0.17120815503980
  N   6.74746075607963     -7.90719086478748      0.46561879441265
  N   5.50468799812852     -2.67680539110298      0.41202088910802
  N   4.84076548625761     -1.47404476552733      0.23544518499062
  C   5.64022781946448     -0.38057684460729      0.11964621139601
  C   5.14835437736923      0.86058320996371     -0.04216633716508
  C   3.71678579655935      1.12322432782893     -0.10422621093276
  N   3.19354352194881      2.30026323139175     -0.24323389959088
  H   2.70300298542090     -4.51672332801060      0.58915137298004
  H   6.69495039198591     -0.60967321689465      0.17059216508778
  H   5.83456501999742      1.69287109257256     -0.12760686768869
  H   3.94034175903806      2.99015450375885     -0.29658290745368
