23
Coordinates from ORCA-job 13540optt
  Br  1.15976920545144      0.06751846783589      0.57829154338637
  C   3.00594132853198      0.11275790444933      0.27197199548062
  C   3.70312544600300      1.26738354478998      0.15265262945406
  N   3.21529279218315      2.55572847338201      0.25115744564176
  C   4.13918868037473      3.41143760039078      0.05606309454384
  C   3.97088381478747      4.90806516830891      0.14632963392269
  O   2.89838418079342      5.38646837913059     -0.59866788471994
  C   3.07320415610427      5.20325483994981     -1.97778071275802
  O   4.09477043926656      4.60428665649230     -2.36146140328494
  C   2.02654607277757      5.74043717958840     -2.77820549226215
  O   1.01271767158705      6.36232532399106     -2.37384690931909
  S   5.76192998071707      2.74524064496586     -0.25273688014385
  C   5.11909840133319      1.14608271530560     -0.10132748363345
  C   5.74610334619607     -0.05392619422668     -0.21080534457350
  C   4.99476005009104     -1.27789041821178     -0.07354917173362
  N   5.39628700843128     -2.49892868639099     -0.14246573082006
  N   3.63146195428378     -1.08651125496664      0.16880214148596
  H   4.91236718317806      5.37757076552643     -0.15489927439701
  H   3.76039201952185      5.15678128683563      1.18905298536034
  H   2.19846216368627      5.55673490294506     -3.85145241399524
  H   6.80505521793861     -0.13281361800593     -0.41257662695646
  H   6.39372116499070     -2.52792964855055     -0.32429201909508
  H   3.09353772177120     -1.93607403353525      0.25874587841683
