24
Coordinates from ORCA-job 13541optt
  Br  1.34271085494132      0.19087541887705      0.28061382605355
  C   3.19848501570097     -0.00758269699603     -0.11136613804064
  C   3.75200697951872     -1.26399764366833     -0.13253023533063
  N   3.07348083489011     -2.42474779635225      0.03386125088991
  C   3.81827970914736     -3.62131982745897      0.39805932901707
  C   4.96061487311534     -3.83310620287560     -0.58505154055115
  O   5.25763659609082     -4.98229458027736     -0.95479826281669
  C   5.59626252875212     -2.64089126144519     -1.05652292023532
  O   6.47423236980876     -2.51201805246673     -1.90732647044365
  N   5.09500536345473     -1.38902968297405     -0.40616681471570
  C   5.90419667231533     -0.23403245434593     -0.39650073902698
  C   5.16441775660696      1.00764304345545     -0.59073482712769
  N   3.88936815504315      1.10248973721812     -0.42669494681271
  N   7.16345162804780     -0.18553168449539     -0.19934184341224
  C   7.91783136944692     -1.34429234165556      0.18380293483255
  C   9.19516446297070     -0.90390268733206      0.84596858429493
  O   9.86978206808303     -1.59029201831652      1.56753710138140
  H   2.11933017155116     -2.32828894776801      0.34002677144952
  H   3.16082976104224     -4.48464769236537      0.32366912630673
  H   4.18855398634328     -3.55280578781980      1.43158056997335
  H   5.74101854375686      1.89399590610405     -0.82516531280878
  H   8.19668115269162     -1.94377554486189     -0.69467002228975
  H   7.37821038245221     -2.03120083972481      0.84842432585249
  H   9.49544876422835      0.13375363754524      0.59732625356044
