23
Coordinates from ORCA-job 13550optt
  Br  1.12086979550908     -0.33694993546690      0.36802005318969
  C   2.99531079196678     -0.16678746992836      0.19558171377630
  C   3.73145406244258     -1.29321054107367      0.22421536307883
  N   3.30057433615505     -2.59898538542370      0.37116188166844
  C   4.35212187881014     -3.49659668665762     -0.06361054281919
  C   5.55638040224528     -2.58147903473898     -0.25824656113111
  O   6.63629709269032     -2.92406639910665     -0.65512132793150
  N   5.11939642011892     -1.30709289144799      0.06278138556165
  C   5.77888396125233     -0.07359001716769      0.01541723705803
  C   5.02560176272787      1.10946956623400     -0.06496147661315
  C   5.94362220394672      2.21768574166092     -0.04146068509937
  O   5.75056829397963      3.43372330109903     -0.08465065230880
  N   7.20586777295429      1.63014908752752      0.06028454016819
  C   7.16840967740192      0.22935208258744      0.18358058466313
  N   8.16360248747401     -0.55512536132141      0.45482734522046
  C   3.58509423341115      1.16883940602688      0.00069402038609
  N   2.84097310486270      2.21362344470828     -0.06011123931524
  H   2.34903172904432     -2.76978459866340      0.08518866661546
  H   4.13571209053732     -3.98525823032307     -1.01734614440664
  H   4.58377423327508     -4.26367141670031      0.67714428175485
  H   8.03730328668427      2.17832673877783      0.19650888688147
  H   9.01514266170944     -0.00505963734531      0.55369100282433
  H   3.44200772080076      3.02848823674315     -0.18358833322192
