20
Coordinates from ORCA-job 13559optt
  Br  1.20471894675519      0.04301833769639      0.23490355018332
  C   3.05130838952403     -0.12059235875916      0.50518501104952
  C   3.79965990277560     -1.12282868568181     -0.09258265832994
  N   3.44529597790874     -2.27752854506554     -0.65147559414973
  C   4.59835415032932     -2.90543289890960     -0.98639615384824
  C   5.76512486575446     -2.15928012282072     -0.64534317780757
  O   6.98463579744139     -2.34476045070358     -0.77176453983530
  N   5.19394653322530     -1.00893033788026     -0.06084644166190
  C   5.76349627111106      0.13602709518363      0.47166721663651
  C   4.99526318481579      1.13926910523091      0.88732142159132
  O   3.63876760370993      1.10834816475215      0.84382311345710
  N   7.17326888485154      0.18832731991616      0.53287879361418
  N   7.78362011446959     -0.50027819095886      1.53302843039664
  N   8.97675026490367     -0.75488495314831      1.34233744417357
  S   9.52722175836319     -0.21981527505988     -0.19027299085989
  C   7.94103318268732      0.39541649855623     -0.61949232992613
  N   7.49291962287989      0.95753349891760     -1.65665646265459
  H   4.60694767292340     -3.86865617309782     -1.47053184254136
  H   5.40018842960613      2.05839467915295      1.27985335267596
  H   8.18847844596429      1.00365329267954     -2.39263614216347
