22
Coordinates from ORCA-job 13554optt
  Br  1.22243649451030     -0.13988072836679      0.79315982633344
  C   3.00122270721201     -0.10070568014236      0.16139085498126
  C   3.68697161311794      1.06949831209441      0.04789704010092
  N   3.30201432284840      2.34930590260621      0.19193562870617
  C   4.38686520937737      3.10141787702469     -0.07314481510531
  C   5.55037318205053      2.35491380285825     -0.39724229493485
  O   6.69160913844304      2.66532131468766     -0.72531794199268
  N   5.06698671528302      0.99125579996986     -0.28428707597998
  C   5.72940533689008     -0.18813194606816     -0.07913628633543
  Br  7.60034984296164     -0.14275158053053      0.17294854559830
  C   5.04327605672911     -1.34896362969193      0.05639124933022
  N   3.62377692951861     -1.34482830592081     -0.08530255114025
  N   5.68386144727219     -2.53877339850837      0.32091127602460
  C   5.01247243618636     -3.59799263697397      0.50614891585987
  N   5.71384693146105     -4.78047766906999      0.75655168708496
  C   5.15045657359117     -6.00341938016242      0.93019898054396
  O   3.96654096184646     -6.24373887205194      0.89594435912496
  H   4.35697577256898      4.17977755565860     -0.05901232322963
  H   3.33392166949555     -1.76454638677674     -0.97056638399087
  H   3.93038453678696     -3.68864648725523      0.51421507315106
  H   6.71868922177776     -4.69120257134339      0.79064926154657
  H   5.90756290007137     -6.78443129203704      1.11066697432271
