20
Coordinates from ORCA-job 13567optt
  Br  1.04305653782852     -0.21204662319383     -1.05150521058143
  C   2.86945667081517     -0.18261849789985     -0.56111215146244
  C   3.50337968365515     -1.30279842665131     -0.21526447921781
  N   2.99290310953295     -2.62399838524580     -0.16842195749951
  C   4.11857166083550     -3.51380765202376     -0.45769883958173
  C   5.35460744057661     -2.63439135144929     -0.23826555761589
  O   6.48358099483151     -3.04035181261495     -0.30098318856693
  N   4.89301703546355     -1.35822677257815     -0.01247578292667
  C   5.69348949020315     -0.26212007550401      0.55112513592188
  O   6.68576932129138     -0.55586299280602      1.20586737002226
  C   5.22208840607996      1.07350966389877      0.32444085993845
  O   5.75761151019214      2.10874836764745      0.70264582491782
  S   3.67577016822954      1.35306079540868     -0.66127790123062
  C   2.00960702476022     -2.98336994716336      0.73901524691579
  N   1.32741985909747     -2.27418301197892      1.53312613965021
  C   1.70150526829323     -4.41487885285969      0.70042381469301
  N   1.47808758978850     -5.53805883082362      0.67324651056795
  H   4.09929582744650     -3.86376519422135     -1.49116775081752
  H   4.15560065261303     -4.37254601556147      0.20877845750173
  H   1.61918174846586     -1.29729438437951      1.49850345937142
