22
Coordinates from ORCA-job 13562optt
  Br  1.16273937558838      0.19329424795319     -1.08964515060717
  C   2.97679435783472      0.03067621971135     -0.59369135448828
  C   3.52618506633200     -1.14575015289630     -0.30771283081582
  N   2.98807343502722     -2.44841916322194     -0.31610961654452
  C   4.11913702870320     -3.35089784027189     -0.55328688438750
  C   5.35276224398145     -2.49923269135712     -0.25044156866620
  O   6.48551633004658     -2.94008381350129     -0.19226222837207
  N   4.91561236922827     -1.22325077182513     -0.09827100954355
  C   5.68007084951934     -0.02922575883021      0.18837071898454
  N   6.90727602550978     -0.08539560728672      0.63809160581602
  C   5.01811577785480      1.21644201258452     -0.03881677737678
  O   5.43939087337757      2.34021251919060      0.12135938900757
  O   3.64644195964800      1.17531160743121     -0.57328553287545
  C   1.96417103024135     -2.81986540922635      0.55821063217419
  N   1.30095031038352     -2.09080015283672      1.35591805160010
  C   1.61322522509424     -4.22683518822859      0.46255987223272
  C   1.33487701447886     -5.38923199992382      0.39352138186194
  H   4.15965594226350     -3.68501630793460     -1.59329664275218
  H   4.09249386220320     -4.22229943948618      0.09572231095216
  H   7.20771110850617     -1.05432083105519      0.68978930891304
  H   1.64713686753706     -1.13184964154500      1.34911110764489
  H   1.07366294664076     -6.41846183744375      0.33916521724235
