23
Coordinates from ORCA-job 13563optt
  Br  1.17449402729784      0.23433758710937     -0.37237692619218
  C   3.05183718046056      0.16085885605148     -0.22082009413053
  C   3.67245902178783     -1.04859060926278     -0.19696527714327
  N   3.16390824935208     -2.33388267363005     -0.34731009411182
  C   4.19025528048123     -3.28212567388716      0.05037478244787
  C   5.46035366312966     -2.43678267780620      0.05403398790622
  O   6.58949520294040     -2.88079288501598      0.17376631241866
  N   5.05391379348046     -1.13472498029619     -0.05969914991747
  C   5.87181194688417      0.08231813609370     -0.04055491039433
  N   7.14814410827148      0.00570193706984     -0.01767419652434
  N   5.18948437859734      1.24632270697314     -0.03988768521049
  C   3.86928861874085      1.30454441666635     -0.11459374031760
  O   3.20300145279806      2.48892902592331     -0.06481305255831
  C   3.76365436179766      3.70983364236293      0.03118000924258
  N   4.98180114101983      4.07629162342685      0.06296096243091
  C   2.71607595399839      4.76804983667468      0.11096115754553
  O   1.52399496728219      4.59488592106399      0.09106976433031
  H   2.22324834234279     -2.46307710602056     -0.00824004312884
  H   4.29116544116912     -4.11184720347264     -0.65056513725032
  H   4.04488610400321     -3.69683355114828      1.05814457757116
  H   7.44493679780448     -0.96395767428556     -0.00391430121920
  H   5.60135809530075      3.26683358900360      0.01224134929075
  H   3.16643187105955      5.77270775640616      0.19768170491470
