21
Coordinates from ORCA-job 13571optt
  Br  1.57926054810156     -0.53168453157777     -0.45582114282696
  C   3.29286078293616      0.18447278186066     -0.26156607924254
  C   3.56679862618264      1.52623542948647     -0.15161500580416
  N   2.78661323718657      2.63527386585244     -0.10712316596022
  C   3.61732971632500      3.66338885942028      0.10378334496946
  C   3.22426886799079      5.02355401356135      0.26418018898805
  O   3.97611858438579      5.96357779773427      0.51112986803164
  N   4.94255598946255      3.22028931248106      0.16146733477437
  C   6.22909952644211      3.69629381388423      0.52191177508714
  C   7.14575466520045      3.23926659906416     -0.34852040688015
  N   8.11616733875530      2.29449093840002      0.01785137790856
  C   7.44477736140561      1.19993916293907      0.23902932877715
  C   6.00972959570729      0.94897325183452      0.11001366259188
  C   4.93974950919638      1.87235670011420      0.00725007452623
  C   5.62528640409936     -0.44668350762267      0.06037277935661
  O   6.34943016023571     -1.40554857503516      0.16800503044326
  O   4.27400068744206     -0.74526640225438     -0.15659808241973
  H   2.13590410161092      5.16745660141292      0.15094116518713
  H   6.41803729776753      3.78230778686409      1.58442558111072
  H   6.88617700677689      3.23700463227550     -1.40715404945547
  H   8.02207999278927      0.31130146930472      0.48003642083702
