22
Coordinates from ORCA-job 13578optt
  Br  0.93721945129751      0.05449645749272     -0.09031652720040
  C   2.82505901494881     -0.00764405702323     -0.07712809469395
  C   3.53066327407043      1.14922577726311     -0.07239354698470
  N   3.22665373332985      2.45651709959813     -0.07252004309720
  C   4.43360180948322      3.17017839879857     -0.06588735471506
  C   4.40645249415157      4.58352628586366     -0.06286822064998
  O   3.34761097697039      5.23901607437323     -0.06543339284139
  N   5.48753856228643      2.34659899767994     -0.06228837126916
  C   4.98022648012336      1.09419102477751     -0.06574572443466
  N   5.65989033622458     -0.02719203269432     -0.06413158063728
  N   4.92440867697169     -1.17568807900991     -0.06651038574249
  C   5.76036442775109     -2.36032770217401     -0.06273456723533
  O   6.96992702277315     -2.24628863480955     -0.06035682042067
  C   5.04253490280994     -3.59670927611919     -0.06189775359521
  C   3.67732491879204     -3.64551603972342     -0.06620384968682
  C   2.90923803841255     -2.48391585665544     -0.07188195902531
  C   3.53906328595319     -1.24639095271775     -0.07207828815649
  H   2.31948888204296      2.89410871135200     -0.07532520894235
  H   5.39281175579863      5.06921065321806     -0.05756250123741
  H   5.65383288972180     -4.48739014249946     -0.05806034823985
  H   3.17566881643084     -4.60704284877564     -0.06525542249605
  H   1.83242024965596     -2.51796385821501     -0.07542003869827
