21
Coordinates from ORCA-job 13577optt
  Br  1.17492786329562      0.14856517048895      0.04787618823520
  C   3.05000356309072     -0.03447690855219      0.05189895164589
  C   3.67473838524402     -1.24646317579634      0.05324044774421
  N   2.94890581727887     -2.41598629411531      0.05254649327487
  C   3.63496396054088     -3.49444475999588      0.05381664647566
  C   5.12955691794748     -3.55371113685210      0.05568766838391
  O   5.65216179246492     -4.66201545744225      0.05648351358667
  N   5.82298303221738     -2.38332854699336      0.05636251764227
  C   5.14622867287230     -1.24435509100988      0.05534941458492
  N   5.82167576074194     -0.08452286959055      0.05634128462235
  C   5.14960965365116      1.06512168565548      0.05556755533952
  N   3.75008205926504      1.10106541000251      0.05316132337555
  C   5.71103238618381      2.36750862671015      0.05684201991697
  O   5.04654161347567      3.40941029638378      0.05641481015968
  O   7.09669596525476      2.37261954613797      0.05850276595520
  C   7.72414714994160      3.56782736493230      0.05965453834827
  N   8.97871555731670      3.68249953296129      0.06041518873229
  H   3.11576865292737     -4.44926059215566      0.05351317969984
  H   3.32169620513564      2.01778420040951      0.05252380292325
  H   7.06197999938744      4.42699317167206      0.05979814124258
  H   9.41058499176663      2.75716982714949      0.06000354811091
