22
Coordinates from ORCA-job 13582optt
  Br  0.78358386183134      1.69100744871060      0.20074526574646
  C   2.47345892748758      0.85952555077198      0.03038922780713
  C   2.54042057136934     -0.54554356423383      0.03363227345450
  N   1.42740356890851     -1.23916503690701      0.24603062385558
  C   1.20003949703578     -2.54777250632264      0.23358867548012
  C   1.94324618376601     -3.66597221890850     -0.24751138738625
  O   1.51590595104438     -4.81929034756237     -0.28329584330196
  N   3.25802866778462     -3.48673711547319     -0.75486374314228
  C   4.11271532926802     -2.44541659644140     -0.55671709791387
  C   3.87934128496632     -1.17092916368278     -0.18257983250961
  C   5.00811430029855     -0.26509824364465     -0.11813632916850
  C   4.89390402846567      1.10439034692416     -0.08256809354149
  C   6.21893941870909      1.58492222906580     -0.06926532616146
  N   7.09142396658174      0.59509342995110     -0.08442049662670
  N   6.33590341655751     -0.52613290793172     -0.11806358721739
  C   3.58892958960566      1.77496598280376     -0.05336272481288
  O   3.50697287303474      3.00089899849725     -0.06820965099160
  H   0.21646148843047     -2.85292460487805      0.57697535529906
  H   3.65804254588009     -4.36948215602124     -1.03061570695641
  H   5.13830515988295     -2.71323703172260     -0.79193798744439
  H   6.55221541833257      2.60953797402587     -0.04568116499101
  H   6.79464395075901     -1.41764046702055     -0.07213244947705
