23
Coordinates from ORCA-job 13585optt
  Br  2.78774975754831     -2.42045992996663      0.21673303930544
  C   3.26922191041522     -0.64762387490709     -0.18802128873066
  C   2.41107711865819      0.41233976306227      0.15057706905715
  N   1.19436942423433      0.11218944160690      0.61766929319242
  C   0.19783528423159      1.00078001850539      0.53040661480446
  C   -1.09807114650599      0.64433370653934      1.05921014527933
  O   -2.07764488979408      1.38121438632369      1.03808433520926
  N   0.49184360493036      2.18998930315093     -0.02261464414934
  C   -0.06136070993357      3.34371961562267     -0.03909690691895
  C   0.91093794925927      4.40246027718951     -0.17548946386094
  C   2.18880948396758      4.15706806231124      0.19398684247303
  N   2.76439121951491      2.96897653738855      0.68234017251147
  C   3.03450376096947      1.76138115181486     -0.07378863044979
  N   4.11102294078354      1.89981139144659     -0.76667250559461
  N   4.69362020493143      0.82603123544202     -1.31064107330032
  C   4.45401361235947     -0.49724879295429     -0.97284326568933
  O   5.21709658612588     -1.36398128635135     -1.38876040502837
  H   -1.14797616926057     -0.36429277732043      1.50616663657898
  H   -1.10400288265045      3.54710815302652      0.20955585076665
  H   0.63157450174731      5.42283393277454     -0.40610468346704
  H   2.86655395044428      5.00405094836542      0.24699782116102
  H   3.66042722499290      3.21271543701021      1.08266932793034
  H   5.55500726303062      1.00460329991911     -1.80136428108020
