20
Coordinates from ORCA-job 13580optt
  Br  1.03980443906799      0.08703820502202      0.65121892885011
  C   2.86509862870915      0.16099111152624      0.20508439827987
  C   3.43377015662501      1.44175730374750     -0.01520156993047
  N   2.84858488507985      2.64746287401638      0.07739370153807
  C   3.84085756764778      3.50756313453987     -0.21939005062811
  C   3.56215086796577      4.93703327389754     -0.20702225012758
  O   4.34325258253340      5.83615395352028     -0.42782031186498
  N   5.04735243614131      2.94857417038370     -0.50681714994352
  C   4.79070475812979      1.65836218166012     -0.37867046057562
  S   5.96136527650570      0.40361228319811     -0.66162876203470
  C   4.99220748445320     -0.98956406303866     -0.26065136200828
  O   5.73108627699551     -2.15071559017970     -0.32703638745542
  C   6.33168670614694     -2.47756723499545      0.91101961465426
  C   7.12632241870369     -3.70015209837256      0.74759959269254
  N   7.75418345027521     -4.65373603695020      0.65958031118273
  C   3.66104991868862     -0.98584649073253      0.09115245751564
  Br  2.91581367639581     -2.70095006876785      0.45641861943437
  H   2.50431685610128      5.15002635928551      0.03987043760716
  H   5.56860197327886     -2.65642706765319      1.67409976626113
  H   6.98878964055495     -1.66861620010713      1.24480047655280
