24
Coordinates from ORCA-job 13587optt
  Br  2.52438755129825      0.49614326189927      2.50893497824987
  C   2.84158168669192     -0.33233177380115      0.84026909397853
  C   2.32462589321274     -1.55921909650295      0.49984448424912
  N   1.45803245991901     -2.29964534618583      1.22296350105050
  C   0.30434068181064     -1.84428087695594      1.68839811306428
  C   -0.78656121637605     -2.70122338902412      2.06766394348867
  O   -1.77672559800718     -2.30844549346742      2.70490826243523
  N   -0.73680243775686     -4.08104776172338      1.74277524016970
  C   0.02832801959577     -4.69573299925859      0.77952878339859
  C   0.44232544568595     -4.07903420111753     -0.33823243412182
  C   1.81376488350675     -4.37975374774365     -0.78769396432370
  O   2.31731583847710     -5.48799105811388     -0.73283968707442
  N   2.54761099911314     -3.30821742395576     -1.29865649590223
  C   2.77995216205581     -2.13772270498436     -0.81424313344732
  C   3.57616690756596     -1.24302396319849     -1.63708883085209
  C   4.01160444189511     -0.04400893781443     -1.19971737871938
  N   3.67797161743384      0.40951037306159      0.03310890427311
  H   0.04841490926452     -0.78318893260012      1.70477362853899
  H   -1.29588600844942     -4.64268011961945      2.36566557345512
  H   0.43515662943915     -5.66774831319570      1.03992236974097
  H   0.03964644671789     -3.10885119169650     -0.58783810104061
  H   3.84916271540976     -1.59417349185182     -2.62110091814417
  H   4.63764710096503      0.60962714462491     -1.79075024797876
  H   4.04093887053111      1.27704004322535      0.38540431551182
