25
Coordinates from ORCA-job 13588optt
  Br  1.53568254259413      0.18198921977603     -1.67840411176037
  C   3.16102820537883      0.11635028582176     -0.73253711281936
  C   3.61552460859321     -1.09514864740793     -0.22487419875242
  N   2.92676345024456     -2.24500842311671     -0.35715672978114
  C   3.21424270929760     -3.64029576153880     -0.30993821115782
  C   2.04771566234038     -4.37950678044694     -0.66364123526041
  O   0.94272192792246     -3.85002817292114     -0.94754833572214
  N   4.33532739985838     -4.25488497140711      0.00983531155606
  C   5.51276608997134     -3.48387411740283      0.27771526544682
  C   5.27303375608686     -2.26821284429306      1.18644995681866
  N   4.79871456880510     -1.09299968348346      0.47759674272217
  N   5.55510847500735     -0.00027166433397      0.62547262325441
  C   5.15115269640950      1.11203703025333      0.13383915901357
  C   3.89709739773606      1.32774892769470     -0.58639757242620
  N   3.51857090259662      2.47758583552160     -1.04207712607422
  C   6.21810797179689     -3.05509644705894     -0.94874861629564
  C   6.75358449062692     -2.70290853917272     -1.96255645260536
  H   1.97863163384085     -2.14574624479419     -0.72665259187214
  H   2.19232070577377     -5.46748159413121     -0.67807641978559
  H   6.20333273657417     -4.13452634559869      0.82598304351900
  H   6.19472970233061     -1.95095748287676      1.66694890638927
  H   4.54184127116814     -2.56251092506792      1.94402965392496
  H   5.81247940528678      1.95860337732996      0.28946914600049
  H   4.22464736745325      3.17737414487134     -0.82176713870870
  H   7.21387432230612     -2.39323017621631     -2.86896395562389
