25
Coordinates from ORCA-job 13595optt
  Br  1.09264395862824     -0.19433287476987     -0.75496777968387
  C   3.03097317986376     -0.25456401647028     -0.60423289798042
  C   3.65619979052664     -1.48310695092426     -0.58272965792129
  N   2.92840329170979     -2.69713463639861     -0.68863218442682
  C   3.12684265998921     -3.65669228633713      0.38585648062773
  C   4.54407135645427     -4.22240515541751      0.36988865946726
  O   4.99049924691423     -4.81765172871017      1.31415503955934
  N   5.29145937134101     -3.91557313041401     -0.79108495625610
  C   5.95103647787515     -2.62154697031639     -0.51728820270396
  N   7.22095923122009     -2.57318403603312     -0.29308469693831
  C   5.09527965502921     -1.47144402328927     -0.48021357375179
  C   5.69476240297671     -0.17713061870491     -0.35592224278982
  C   4.92883092387928      0.94826701977276     -0.40426135710011
  C   5.48697707324439      2.35017152645495     -0.28471201980023
  C   6.94293930092765      2.45521152498811     -0.25583618695714
  N   8.08162741909036      2.58662929001623     -0.23129212976871
  N   3.58279300252731      0.95109012250436     -0.55316556081337
  H   1.94679592936738     -2.50383658603795     -0.82485999454230
  H   2.41983710488149     -4.47954820616683      0.25845011007206
  H   2.97426661482991     -3.23403933730666      1.38707857190068
  H   4.62026714989145     -3.73133883682552     -1.53136940001408
  H   7.59897464752961     -3.51159957416265     -0.38968552275927
  H   6.76967394767575     -0.12559069852225     -0.24731274368778
  H   5.09421168452100      2.81535621769254      0.62305666487744
  H   5.11867457910606      2.94599396537846     -1.12283441860916
