20
Coordinates from ORCA-job 13591optt
  Br  1.38563161299619     -0.19813340255347     -1.87084059390771
  C   2.43831595212326      0.55803943266989     -0.52508619936124
  C   3.42884766444835      1.47113598696387     -0.69716357166986
  N   3.65563358918073      2.14980583309571     -1.85252246695327
  C   2.59028152139160      2.83029775139741     -2.30097468129088
  C   1.59197500137235      3.48328460497805     -1.50178554238546
  O   0.46987961507780      3.83866217033300     -1.89266084273590
  N   2.02646805071787      3.98387894201047     -0.22009787739852
  C   1.59918274963034      3.67061846215470      0.91631481546003
  C   0.64039576790058      2.56745306521773      1.28599235795344
  N   -0.50786879905978      2.34008490140504      0.86391037642798
  O   1.21210010880224      1.70255954534480      2.26682007821622
  C   2.30363853120968      1.18837471282834      1.63275037812029
  O   1.93142837951189      0.26749564947809      0.73330930880190
  N   3.44140919820118      1.72076634477452      1.69093688665785
  C   4.27246781485976      1.61231786962211      0.54352969450922
  O   5.46358642465146      1.73275195781768      0.58330599297572
  H   2.46308611392754      2.95663350449686     -3.37330246489515
  H   1.99856361579298      4.19607137847080      1.78623282004102
  H   -0.74002291273613      3.03090128949431      0.14433153143430
