24
Coordinates from ORCA-job 13597optt
  Br  1.02969379130085     -1.75958046816002     -0.12732804364282
  C   2.44942312975812     -0.46708790557287      0.18490189480354
  C   2.68762081601656      0.51886160423272     -0.69202303348746
  N   1.74828234223163      0.79209178498502     -1.69292783433241
  C   1.01418955767203      1.83481924671111     -1.61829162555304
  C   -0.09169261966961      1.81593107864349     -2.65116865803893
  O   -0.96318716205669      2.63317172153259     -2.75222918153703
  N   1.07005059065257      3.00079944962102     -0.90626335935863
  C   0.75016230847437      3.46500354395189      0.22417532399729
  N   0.39614964093166      2.83121093677421      1.39980023651878
  C   1.17444075274496      1.65316233389937      1.72953432263220
  N   2.39309878317902      1.84417790191424      2.03633783201176
  C   3.39430647620930      0.90317754694473      1.85329680498910
  N   2.94777301645929     -0.42414988352618      1.46829036512801
  C   4.28367491899853      1.50668950107766      0.88947288881139
  C   3.90959291875093      1.35974665663105     -0.47962952196190
  N   4.41093415036430      1.94779809840906     -1.53126170947075
  H   -0.03280722944492      0.92155380383313     -3.29559049403097
  H   0.74353267506989      4.55420523004761      0.31196318364087
  H   0.32610800957253      3.49303801774062      2.16009193818324
  H   0.70576247609632      0.69934590896097      1.50993795075386
  H   3.54375397822423     -1.18848854579594      1.75428439106471
  H   4.86211177004122      2.38448790486897      1.15724572679081
  H   5.22302490842280      2.49303453227547     -1.23961939791162
