28
Coordinates from ORCA-job 13590optt
  Br  0.91407947595873     -0.19035059357015     -1.29239562094545
  C   3.05553868291913     -0.54191273655443     -0.07198704590679
  C   3.04173625073773     -1.66715835438435      0.70508711291627
  N   1.86499291379921     -2.26460898232849      1.24630398196250
  C   1.46805677100266     -3.41816768728906      0.42016559049462
  C   2.20707352898726     -4.69703268499977      0.82270717829505
  O   1.89864112546361     -5.28968918533437      1.83856106796473
  N   3.18252616264581     -5.23327931486287      0.01554210737052
  C   3.93627043329513     -4.68245849694563     -1.10014014800733
  C   5.44494516845435     -4.62421872117453     -0.80233951115159
  N   6.19157668379619     -5.66285244900490     -0.83742081470678
  N   5.99812126037018     -3.40430777495038     -0.51724041263867
  C   5.20633989326638     -2.28092974395579     -0.19836653493918
  C   4.21154343165335     -2.44429019012979      0.72182552271590
  C   5.23631184241873     -1.10824120414000     -1.04481393678920
  N   6.09141410049000     -0.77365044674945     -1.95154684820009
  N   4.16671694856514     -0.24838283542757     -0.78462958947900
  H   1.11629848738507     -1.58219108815615      1.19732102918995
  H   1.56662944286042     -3.19717462389794     -0.64815428941548
  H   0.42084681218747     -3.63821070374301      0.62698703366473
  H   3.57488886013011     -6.06870575218088      0.42958717653372
  H   3.53842202625562     -3.70899569300190     -1.36864301630292
  H   3.82657737043804     -5.34086956645843     -1.96586981356818
  H   5.66100156185643     -6.47430908427032     -1.14113817125248
  H   7.00192994018566     -3.40973338778503     -0.40195291442794
  H   4.25078323883224     -3.31300941083839      1.37081892618769
  H   6.81074720674379     -1.48658066972375     -2.02468474011474
  H   4.15699037930146      0.58031138185741     -1.36458331944983
