23
Coordinates from ORCA-job 13599optt
  Br  -0.52295209097791     -3.46626222424970     -2.46782437903410
  C   1.30468456135391     -3.10751006378038     -3.10800202863320
  C   2.43404888623746     -3.04744374277219     -2.01705100482345
  N   3.58857697523698     -2.30419143792718     -2.53180222764803
  C   4.46316874731543     -2.51394629128749     -3.55448105105255
  C   5.75664844101574     -1.93927251220881     -3.52531299455603
  O   6.59611501992236     -1.98381190135086     -4.43392638217385
  N   2.20498241930060     -4.15870051217786     -2.90234534481339
  C   2.92618079286004     -5.25828235232391     -3.20340609575931
  O   3.80839694796939     -5.65320731325463     -2.45900586123274
  C   2.81402450947730     -6.05912829601023     -4.48841508901886
  N   2.72476897385091     -5.64903044126186     -5.68288194898387
  C   2.43108798140778     -4.28570268616656     -5.87002652161730
  C   3.00422097188245     -3.22392865084696     -5.30643370557961
  O   4.17958698516960     -3.33161605469920     -4.60841129829521
  C   2.18226823898814     -2.00667986913630     -5.15296960191453
  C   1.29274556794300     -2.07887374226004     -4.16347164613031
  H   3.94938803394227     -1.65433039248250     -1.85175101488439
  H   5.97705666976801     -1.40680829235824     -2.58019540577237
  H   3.02140382256348     -7.11390642768674     -4.31752589563344
  H   1.55524005947047     -4.10558749153195     -6.47941154954550
  H   2.27829506659706     -1.13390991599432     -5.78618366172507
  H   0.60306241870544     -1.26586938823201     -3.96516529117280
