22
Coordinates from ORCA-job 13600optt
  Br  0.93467890269607     -0.68663396632047      0.21071125886640
  C   2.70407694676937     -0.06326264835922      0.08339652639449
  C   2.95223909764355      1.26670251176786      0.18168088093342
  N   2.02634399779597      2.28236532849934      0.23941839103300
  C   2.26474102420937      3.18525553409861      1.10439278626277
  C   2.59941190238643      4.56066062140629      0.59276393459538
  O   1.95714074304539      5.59563302389953      0.59850294521530
  N   3.87142254815487      4.37675103945500      0.16875002325117
  C   4.55671118922924      3.23289295408487      0.04811476689689
  O   5.92466032364788      3.49377487059386     -0.24759904168537
  C   6.69768500336954      3.92829039818629      0.74481452038409
  O   6.42339985704418      3.99197653125703      1.90549434875889
  C   4.30768738146283      1.81935744215015      0.05525842781483
  C   5.30868084001145      0.88334846043961     -0.12456500474227
  N   5.01269014862058     -0.46320275891136     -0.19181079354948
  C   3.75939860443819     -1.04263087451977     -0.11020159688798
  N   3.53741499177133     -2.30983294739136     -0.18422043170112
  H   2.77080660614701      2.93571340242095      2.04885911318822
  H   7.67466330180840      4.21960943628071      0.33192184719128
  H   6.34852909154180      1.13806139411974     -0.24073274477847
  H   5.78009661411471     -1.10149565951811     -0.31795093236152
  H   4.40752088409178     -2.82233409363957     -0.31299922507993
