19
Coordinates from ORCA-job 13605optt
  Br  1.42459714424371      0.52266683511607      0.55516201351281
  C   3.21383901105521     -0.00856129950914      0.65139886165208
  C   3.73901889376617     -1.17930613584247      0.26926964118448
  N   5.15361919411109     -1.20666819942452      0.28526003249201
  C   5.73398522833850     -0.00205897499316     -0.01013361922642
  C   6.94175555441760      0.15560205414115     -0.89011536062614
  O   7.49672383753881     -0.73193191376264     -1.46620535499928
  N   5.19396704683709      1.12807742791021      0.27694047931397
  O   4.05470882051406      0.96515607747014      1.12055114751503
  C   5.81551789028364     -2.45987571634334      0.34661309921366
  C   7.12172439503730     -2.43299607130585      0.96931340298537
  O   7.87238842663263     -3.38130110844939      1.10113626307703
  N   5.22569917124065     -3.55823459363392     -0.04464589387432
  C   3.95972290451757     -3.58611321867148     -0.53962490673884
  O   3.47771708678636     -4.54534112666790     -1.12572875412253
  C   3.05461063132329     -2.38971276214712     -0.25079673120306
  O   1.85484717317140     -2.43259789394249     -0.38240058435902
  H   7.24625171676017      1.21153408038295     -0.97830065269321
  H   7.40830587342468     -1.43233746032708      1.35630691689639
