23
Coordinates from ORCA-job 13609optt
  Br  1.28228409791418      0.12989692015811     -0.58909315974486
  C   3.11823993066999      0.04977795130179     -0.06943895403622
  C   3.71914201306218     -1.22281845793756      0.10003207513263
  N   3.02534664556611     -2.39646830347425      0.47225906520107
  C   3.63919368435457     -3.56113991545439     -0.13650162547558
  C   5.12030167859363     -3.63649155439124      0.18397233249318
  O   5.70554720009212     -4.68047145205633      0.28531173184777
  O   5.78484147805344     -2.48490758390664      0.32611654878827
  C   5.11404202661817     -1.27147127694295      0.16827582660749
  C   5.83412171649816     -0.12544291655435      0.17104138027843
  O   7.19744212826743     -0.07504647592463      0.14362316511901
  C   7.73674368137329      0.97846088516594     -0.60833749619468
  C   7.37273157779099      0.95521418088171     -2.07243949713270
  O   6.83676326607681      0.04361652043338     -2.63132201342301
  O   5.24583557740025      1.09659776793050      0.14708828659043
  C   3.84166731570811      1.24111327577180     -0.14323508396971
  O   3.49749553331008      2.37995313586301     -0.39332362569236
  H   2.04281116827079     -2.31918610761937      0.24038538159565
  H   3.56872587896043     -3.55102018390581     -1.23624646616617
  H   3.19257886948822     -4.47957508994284      0.23884069145901
  H   8.82457399388537      0.89139019359230     -0.53324425281668
  H   7.44457943802584      1.95502877528693     -0.20939207633863
  H   7.65299110001968      1.87998971172488     -2.62037223412233
