22
Coordinates from ORCA-job 13603optt
  Br  0.83417054040766     -0.64677090615800      1.07455947652301
  C   2.12753219250368      0.26088546377139      0.03365634278967
  C   3.12729041228010      1.04688025734553      0.59004708668552
  N   2.78663279387396      1.82456822754746      1.67249610101411
  C   1.55451961095023      2.50575708132113      1.59309237094324
  C   1.25350045973504      3.33479079664384      2.70882648922284
  O   2.03029633116195      3.46269259875735      3.67407799883253
  N   0.88047444485121      2.33118686277719      0.44403505782489
  C   -0.42839823785523      2.15545017085845      0.40220373899482
  O   -1.30989873050307      2.34850946310940      1.20833991548561
  O   -0.89873825695850      1.63366732391806     -0.84228262756979
  C   -0.31521500783632      0.93746584196285     -1.83453754642856
  C   0.83975374975079      0.29062319715507     -2.09520809518760
  C   2.09837507166844      0.24678928625263     -1.35832565056282
  N   3.22629794684368      0.40212319618931     -2.05585129057684
  N   4.35106509166394      0.71245430297159     -1.43993120850422
  C   4.28769025135664      1.14798908433733     -0.18924399116226
  H   3.45955826783280      2.21515850498527      2.31634545549005
  H   0.30519351582689      3.88042367306265      2.64708004578035
  H   -1.04220472896781      0.88036549874391     -2.63961212928450
  H   0.88372388774298     -0.11497184461039     -3.09827213961335
  H   5.18638039367092      1.60696191905794      0.20850459930328
