24
Coordinates from ORCA-job 13615optt
  Br  1.05480258442457      0.06917876134234      1.07365917939489
  C   3.02935388639507     -0.03641009233988     -0.37030945536827
  C   3.73695681018064      1.08136864815122     -0.61497639875433
  N   5.15277822487858      1.08317356578936     -0.45912474501491
  C   5.94181784804120      2.18695779528201     -0.96779297158223
  C   6.48913973075146      3.19641483510056      0.03800305188662
  O   7.52328690711249      3.75848418537288     -0.18534279782318
  O   5.81183708201864      3.48606480412936      1.15337874117013
  C   4.43173004444437      3.14911128364089      1.36569614161347
  C   3.50963930859626      3.50793207152870      0.20761830641022
  C   3.05201238074991      2.37864816836597     -0.72287529038333
  O   2.09051801316796      2.56819846008629     -1.42893501881468
  C   5.85877855962770     -0.00541218356331     -0.02726787856649
  O   7.06618326141898      0.00153652983369      0.09044114318214
  C   5.04691954884324     -1.27342229850106      0.24834136623923
  O   5.58030093984852     -2.29070262620108      0.62234720510528
  N   3.70526681471220     -1.16882583869720      0.00834468289879
  H   5.34772740051205      2.73370248681800     -1.70194389777172
  H   6.82619655776882      1.78917883503049     -1.46189960432648
  H   4.17088161092836      3.74893016325528      2.23443268642270
  H   4.33565335776076      2.10005834881402      1.64448244769088
  H   3.94077058989832      4.32359026458915     -0.38024044727543
  H   2.57088136639797      3.89107497477872      0.61034972098163
  H   3.15756717152180     -1.98783114260645      0.24261383268508
