25
Coordinates from ORCA-job 13613optt
  Br  0.19600140804812     -0.31444086673719     -1.18154461029897
  C   1.85090878941022     -1.29920722577561     -1.28075998868786
  C   2.40842008064666     -1.86813402073041     -0.14191811302618
  N   1.64201835935381     -2.17951872912090      1.01287814200240
  C   0.45335896600297     -3.00682466357233      0.81735529238387
  C   0.62972734589468     -4.54218809466485      0.80878708427838
  O   1.00611501054837     -5.15739060399429      1.75803543467796
  O   0.18909576452723     -5.25509456411995     -0.30454572266417
  C   0.46034980935109     -4.61559449610526     -1.49080128360405
  C   1.65339518415120     -4.11664264458254     -1.88160894980831
  C   1.38800605969344     -3.04881871374125     -2.81367804819367
  C   0.04087834576418     -3.09035688106636     -3.06923436908221
  N   -0.53575229821547     -4.04618490744224     -2.24371325837938
  C   2.28714077393647     -1.85223398161981     -2.56454552978988
  C   3.71072214514481     -2.07474767542892     -2.53073534938861
  C   4.34353450750538     -2.18180369980861     -1.31860843651306
  N   3.67904058447660     -2.26574600238997     -0.13128156864362
  H   2.26000378038579     -2.56863868088545      1.71595518365797
  H   -0.06631967040011     -2.68045484615416     -0.07663778881899
  H   -0.21707639654187     -2.84593195988500      1.66684684313929
  H   2.59467265074822     -4.26948990201527     -1.37499420165374
  H   -0.57807661670906     -2.43128905986415     -3.65432781517845
  H   -1.50217933437357     -4.31673000325059     -2.22250731306884
  H   4.26078193158806     -2.30257962952572     -3.43991318533147
  H   5.41623281906276     -2.34495814751914     -1.26850244800838
