24
Coordinates from ORCA-job 13616optt
  Br  2.24877586005647     -0.88564859189919      1.73471073984863
  C   2.66006955314309      0.27398101327749      0.28989937966415
  C   2.06738037505825      1.54305839407697      0.16746050842390
  N   1.18953882721254      2.16099739463128      0.93369244128289
  C   0.27546279368165      1.77330967603661      1.78595863883143
  C   -0.68537392767306      2.69454216255607      2.37755933460158
  O   -1.51601052900853      2.32957939448162      3.18221695487266
  O   -0.69280565955815      4.05578885675873      2.08761363064205
  C   -0.00274384575293      4.60716023957625      1.04156323162539
  C   -0.00399667127771      4.13946284668483     -0.19408692390371
  C   1.08083330454269      4.52572148704750     -1.12901806931595
  N   1.15619541561337      5.69689801611885     -1.66415840926782
  C   2.11205977195368      3.55809364791060     -1.47552506602607
  C   2.53010704168473      2.33550756817899     -1.00274758771316
  N   3.55137304252359      1.74420718973992     -1.72329130353537
  N   4.12887548499956      0.53630898381587     -1.57040812922074
  C   3.67150420446046     -0.17050291219024     -0.57767701086256
  H   0.07095248402080      0.74454810141902      2.06949089538171
  H   0.63641044907082      5.42797400050859      1.34783277146677
  H   -0.59457546314995      3.26284963947124     -0.42962649468284
  H   0.34466484006372      6.24098909846632     -1.37679235695844
  H   2.70296390804159      3.93309133609779     -2.30829239831862
  H   3.89334664073182      2.24708775045409     -2.52444231914569
  H   4.12499209956147     -1.14300529321924     -0.43793245769021
