21
Coordinates from ORCA-job 13617optt
  Br  3.21987109654207     -0.34011422838603      1.39791892623919
  C   2.90292235602108      1.02375266890549      0.13637083060965
  C   1.76884000269029      1.74595547687964      0.10914095557749
  N   0.78429920402210      1.63657274534178      1.08845328119396
  C   -0.40268807290738      1.71535742695461      0.66414326657853
  C   -1.42408826637579      2.16472220692614      1.64674053449299
  O   -1.89528794744707      1.54300431580991      2.55460074833262
  O   -1.70616772275096      3.45560923165988      1.46320726931095
  C   -1.41625481937642      4.22211315787672      0.30404329230171
  C   -0.39499516926556      4.27082633940560     -0.66122521686972
  N   0.71726430937069      3.72166217045407     -1.13416381418155
  C   1.61856564543650      2.75737721074617     -0.93768932867963
  C   2.65498347063514      2.65540460672312     -1.91186996654677
  N   3.71312954308172      1.91021446262581     -1.92220831921017
  O   3.91761798974695      1.12466494354446     -0.74041672127942
  C   -2.42249331466214      5.21525361743922      0.19339806962016
  C   -3.28163616234799      6.05854825277996      0.10283511819412
  H   -0.67689089859554      1.70279810123235     -0.39313513316653
  H   -0.67956862255651      5.11312064468969     -1.29415772723177
  H   2.56394239390766      3.27011781853139     -2.80153610081999
  H   -4.03436501516885      6.80303882985995      0.02255003553416
