21
Coordinates from ORCA-job 13628optt
  Br  0.78936830598309      0.02370763098987     -0.43969867617976
  C   2.62532596800733     -0.11340279694332     -0.03348214853882
  C   3.33994106877824     -1.28899146427183     -0.00893600232428
  N   4.73700370782069     -1.23652617299318      0.19262269424797
  C   5.46969076891795     -0.04796276360862      0.13844673983154
  C   4.95386330007511      1.17176949370329      0.21004803652462
  S   3.23900613738436      1.46554394262697      0.45635434828476
  C   5.79086916807470      2.39087657455129      0.12430894096537
  C   6.57537543992389      2.85629587547462      1.27820943072963
  O   7.19336251033753      2.22591229701041      0.16879978871843
  N   5.55329846201633     -2.31060671449202      0.27468056819461
  N   5.08992466819611     -3.46952721136364      0.19812509836035
  C   3.72459899574098     -3.73367564039162     -0.02077437763187
  N   3.32990238586509     -4.96202119059590     -0.08156957359724
  C   2.77426685183021     -2.62327252897801     -0.18009607282936
  O   1.57855429467900     -2.81929011934199     -0.40844896929915
  H   6.53139042770408     -0.20246258659973      0.01381911477923
  H   5.44600509083077      3.14054745296754     -0.58402185783407
  H   6.54701920507181      2.26073155416240      2.18414404067855
  H   6.79935473100628      3.91186672907734      1.39148298348827
  H   4.15487851175637     -5.54651236098387      0.06198589343122
