24
Coordinates from ORCA-job 13624optt
  Br  2.17357509296107      0.96468926960928      1.99154250748413
  C   2.46352405088037     -0.21276683954835      0.52919875981475
  C   1.85100610257191     -1.46281962351783      0.43212057202377
  N   0.90540589746792     -2.02165262192356      1.18808427395362
  C   -0.03613578278880     -1.40978915979326      1.87388112932225
  C   -1.06601412584565     -2.06580846573263      2.63029475757005
  O   -1.87463253161127     -1.44929199262368      3.31326160519512
  S   -1.34924146376899     -3.87903110057147      2.71074663456700
  C   -0.33093661067672     -4.66626430827775      1.51572177873045
  C   -0.14292344468966     -4.17916248481171      0.29566783589824
  C   1.00248259885279     -4.59822993937171     -0.54393882058122
  N   1.16849723256783     -5.81471326392981     -0.92801213085690
  C   1.99477080110511     -3.62352833751993     -0.99495916831417
  C   2.35105949829750     -2.36003767059505     -0.64425247425276
  O   3.36110739610627     -1.88756147536633     -1.45649324522936
  C   3.90937988830501     -0.66228598626806     -1.30680200530173
  C   3.50263978678037      0.18730583150687     -0.35592982413091
  H   -0.17261030497405     -0.33002770235182      1.88029176102437
  H   0.29709818735828     -5.46740598338294      1.88983159362701
  H   -0.72798397602794     -3.33430841164981     -0.04539252480400
  H   0.39130674723559     -6.37838886614287     -0.58485360157668
  H   2.62567040478915     -4.03909597190717     -1.77247539741798
  H   4.68326294428764     -0.47123123642246     -2.03396860797880
  H   3.97169161081626      1.15440634059210     -0.25656540876623
