21
Coordinates from ORCA-job 13632optt
  Br  1.00254957516138      0.18722788366165     -0.52362250697293
  C   2.67727268366866     -0.00259014875087      0.33060960214250
  C   3.38082233002768     -1.17160337858653      0.28495855134737
  N   4.76858585816682     -1.16492814408510      0.54231964774423
  C   5.55663080219205     -0.06946450763474      0.31807589224805
  C   5.08348599818854      1.18894711964500      0.37945788536393
  S   3.42441243017775      1.44569926935051      0.98699318995022
  C   5.85869056483335      2.31534013327538      0.01675310885820
  C   6.48726524610396      3.30412815446197     -0.26180671470437
  N   5.32824213376422     -2.41746076821883      0.41563205779976
  C   4.32280334076860     -3.20407190322969      0.10719506227886
  C   4.54725364188430     -4.67958956216835      0.00336129689480
  C   4.39136236765024     -5.21714809225997     -1.35298299850313
  N   4.28552599788742     -5.67283550500442     -2.39989843504574
  C   3.05166264455600     -2.54896788574409     -0.02177727314084
  N   1.85496043466652     -3.03616123186361     -0.28836800054087
  H   6.57395569896592     -0.29337023877258      0.02748615995941
  H   7.04133069202955      4.17416184404168     -0.51500984531606
  H   3.84133440242170     -5.21557831215592      0.64562426470081
  H   5.55844290371646     -4.90656508432285      0.34212723404816
  H   1.93141025316875     -4.03716964163857     -0.46912817911235
