24
Coordinates from ORCA-job 13638optt
  Br  8.41813215768870     -6.90351815125483     -3.73008727977955
  C   8.43606447523541     -5.39034251615862     -2.57790408612823
  C   9.55475472979291     -4.98335470368671     -1.95434066507813
  N   9.49234525392917     -3.80245571449458     -1.19797726814300
  C   8.93490587615269     -2.65451821798692     -1.79681735358187
  C   7.76704748797659     -2.83007121376307     -2.49710446776961
  S   6.99121736252569     -4.40049121003416     -2.47901165002065
  C   9.56547820579289     -1.39427253779095     -1.65866277258157
  N   10.66560421269483     -1.02412953342340     -0.98890475293485
  C   11.75936994565718     -1.69339650263991     -0.65419517051998
  N   12.31186690946749     -2.82491301052566     -1.06746863934063
  C   11.99022503282355     -3.42636291428345     -2.25009518154186
  N   11.72022155279531     -2.92901148937777     -3.39681333239278
  C   12.00323578504852     -4.93991013350180     -2.16902461991514
  C   10.86108124927222     -5.63788950979796     -2.07718026190918
  C   13.26805871293340     -5.59448201423155     -2.23821028223066
  C   14.34417640602582     -6.12536654799375     -2.29939084248758
  H   10.32098988507349     -3.62779810670779     -0.64901891486321
  H   7.35071685448672     -2.06409630560405     -3.13288132204477
  H   8.97525974453722     -0.56710860778604     -2.04556549174870
  H   12.32078747956806     -1.20483933522276      0.14369880620606
  H   11.70293730347994     -1.91045033531240     -3.32939541473991
  H   10.88326058598912     -6.71949300687307     -2.11925504234616
  H   15.29926279105289     -6.58672838154869     -2.35739399410802
