24
Coordinates from ORCA-job 13639optt
  Br  3.34418024354400      4.24609809013037      0.53088836917206
  C   4.49425139692603      2.73853178537364      0.58972781388080
  C   5.58399272242340      2.65890173693128      1.35838624601573
  N   6.26923564045179      1.39524260537488      1.35412646507229
  C   6.71986717462629      1.12140949638792      0.00776409718340
  C   5.72662445084149      0.89206732021427     -0.91780385306772
  S   4.09882035494019      1.39956003022916     -0.49337525022578
  C   8.07613181645421      1.38899915315767     -0.24218885959884
  N   8.78607105378176      1.96041080397495      0.72507408618743
  C   9.90684283938650      2.59992419860344      0.47927549672904
  N   10.48518148260245      3.42608898728113      1.33335333388095
  C   9.82177553520887      3.92308051468498      2.41101401392874
  N   8.58525341860729      4.22951738749436      2.63546752283820
  C   7.57668574249946      4.22620031543330      1.70110495146073
  N   7.56702218116458      4.72801607640130      0.52892321049109
  C   6.21717909443822      3.73627682287633      2.17744323147246
  N   5.67678541728339      4.27219142724853      3.18798587668461
  H   5.57940796047569      0.68448311984585      1.58982445507573
  H   5.91881230325905      0.75844077123948     -1.97290233126865
  H   8.45034251123842      1.31127897048597     -1.26735289605003
  H   10.42284914030305      2.46894973934628     -0.48306265928647
  H   10.49346473253731      4.16662587104993      3.23695132524575
  H   8.50069519398037      5.07121719847415      0.29833303893706
  H   4.74452759302611      3.88048757776081      3.33304231524142
