21
Coordinates from ORCA-job 13649optt
  Br  0.89534666390191      0.16058688199118      0.46490641874480
  C   2.76839290336064     -0.00300079850598      0.36062882153938
  C   3.39609674858495     -1.17281045052778     -0.02449521764308
  N   4.80197783807497     -1.21442211329061     -0.10983680033212
  C   5.61820365539785     -0.10622373488884     -0.11379321590618
  C   5.21967684238354      1.09909172537370      0.28913842957714
  S   3.62149070061125      1.41005248149752      0.95976062786379
  C   5.20259773315136     -2.48869358052960     -0.59496214266766
  O   6.37698165395342     -2.76087115489908     -0.80968247663055
  N   4.08275055809802     -3.23600578891000     -0.75289878354028
  C   3.01565519219553     -2.46273638663394     -0.43029581823783
  C   1.67937425654142     -3.07574500616864     -0.54853117541498
  N   1.54736884849236     -4.18379769060200     -1.48507829569194
  C   1.54908381750560     -4.49075976469229     -0.05946609843110
  C   0.30912629061342     -4.97903333125830      0.49473559922572
  N   -0.67069639113856     -5.36522731891617      0.95176152379325
  H   6.61205024571197     -0.30099705709189     -0.49659394224282
  H   5.87219866135218      1.95715865133110      0.23421809645048
  H   0.80996521295330     -2.44151539390641     -0.47394605601909
  H   2.48809321407134     -4.38298914666136     -1.82860328248377
  H   2.44926535418344     -4.91506102271055      0.36803378804685
