21
Coordinates from ORCA-job 13640optt
  Br  0.98518457987634      0.19476832846442     -0.30268360645577
  C   2.85688943843088      0.01081937048297     -0.52515917540571
  C   3.52500159288501     -1.14984218380570     -0.28774997296211
  N   4.95056950061899     -1.10568493823079     -0.22832337570807
  C   5.53050018999327      0.03322567087442      0.34376285951092
  C   5.06203489226943      1.26422212555857      0.17025463883873
  S   3.71194261765673      1.49065227996190     -0.93461424055628
  C   5.84622313466785     -2.23426552468523     -0.34355895133970
  N   7.10503436047387     -2.05256636304011     -0.55420842112826
  C   5.27771947989684     -3.56738473539099     -0.14560159002299
  O   5.92853579192231     -4.64201119843795     -0.15263555052801
  C   3.86448985022205     -3.54046730391846      0.01823104050245
  C   2.99406275294807     -2.46109794477833     -0.05829388399145
  N   1.68669728525251     -2.90066323251649      0.02972950086892
  C   1.77170491596549     -4.19320487374167      0.16604355942789
  N   3.06328741748746     -4.63842757721709      0.16575392995290
  H   6.36651445107649     -0.17371176563862      1.00271561870938
  H   5.43935343639890      2.10747096717600      0.73129616632886
  H   7.30164136344651     -1.07425330075540     -0.75189715412068
  H   0.93294127715076     -4.86281356917705      0.27525579958895
  H   3.42367167136019     -5.57676423118437      0.21268280849004
