22
Coordinates from ORCA-job 13647optt
  Br  1.52438386879439      1.51270364524499      1.70917945060127
  C   3.12804317625822      1.13074227657238      0.79036517654586
  C   4.09151998362812      2.04825568572652      0.55210972079463
  N   5.18207433603704      1.59535880447776     -0.27371683745559
  C   5.78584349981191      0.36676975399968      0.07771654519144
  C   5.04327279756084     -0.67969596501715      0.40604018430593
  S   3.29355871270665     -0.56886479356044      0.38460905613604
  C   5.70698368084504      2.24355197852630     -1.36285567133364
  O   6.63260428019066      1.74505149596421     -1.98041041924224
  C   5.08847464306804      3.54240023930814     -1.84071689364413
  N   4.86571475014220      3.67785009001371     -3.08389659138119
  C   4.94870817387400      4.71112281886797     -0.90363559325093
  O   5.14316190367468      5.85128690305783     -1.36790628506833
  C   4.64680619131584      4.50378486237846      0.46775543830884
  C   4.19617364421478      3.37119109853584      1.14354576150584
  C   3.87932929258084      3.50817743686622      2.51919342386005
  C   3.65676253661706      3.64502033856430      3.69740077949361
  H   6.86662611533850      0.34672594343597      0.05368376781078
  H   5.47131066524616     -1.62182698402863      0.71647786483543
  H   5.13756373423399      2.82041029874276     -3.56960844439040
  H   4.67821008397943      5.41858411219631      1.04855303399118
  H   3.45287392988152      3.76039996012683      4.73311653238555
