22
Coordinates from ORCA-job 13651optt
  Br  2.72211829969241     -3.09764567589662      1.72821067543003
  C   4.33233811859739     -2.12389858788284      1.45742815275678
  C   5.56129147929667     -2.71789594973504      1.18490659100380
  N   6.43715009144528     -1.93890416651310      0.31719339241194
  C   6.68800687188010     -0.64433610160024      0.87793549872040
  C   5.65426751809495      0.18059129696712      1.14597640534385
  S   4.04593356382694     -0.42839401275069      1.14348526667687
  C   8.03761174268829     -0.38622840305985      1.43159945302196
  O   8.43067984323377      0.67054142352620      1.85430833159359
  N   8.76720175381434     -1.59755122390638      1.50259799094939
  C   9.34768007484175     -2.02211516984835      2.67812124858472
  O   9.87019382268965     -1.33688890980298      3.50828878796455
  S   9.20283111948594     -3.79668010333062      3.01296760197084
  C   8.57791788559904     -4.51893570841358      1.51970168667954
  C   7.32276959616569     -4.48344207915515      1.07598709703818
  C   6.07613275806668     -3.92234743912226      1.73286875791483
  O   5.54310667297930     -4.60407739124059      2.62285566991821
  H   5.97453508025804     -1.80478787761758     -0.57799597283248
  H   5.80132555321223      1.18877602535359      1.50917489718104
  H   8.29425277723240     -2.32621063110065      0.97653698271276
  H   9.33131137338965     -5.04092472002586      0.94053225307079
  H   7.14934400350932     -4.97364459484448      0.11831923188838
