18
Coordinates from ORCA-job 13658optt
  Br  0.96916676169349      0.19774239076783      0.49609082494641
  C   2.77321395074789      0.16507465607019     -0.14453922010648
  C   3.61224778441512      1.23648088833979      0.09482125864553
  N   5.01669524953620      1.17668744967651      0.02942875207348
  C   5.61289665922291      2.38427195740138      0.23754828947687
  C   4.77733454658030      3.41226086110766      0.48439583585186
  S   3.12253167400497      2.89274145023957      0.38279186919610
  O   2.42243314518573      3.05251828273965      1.64136910200399
  O   2.43911875632341      3.49639960317975     -0.74550615060374
  C   5.70401980298528      0.01720670489433     -0.37354438555027
  C   5.06141050309096     -1.17260948973891     -0.53964965640470
  S   3.37914606896455     -1.46010973022511     -0.31377391876169
  C   7.09155793429288      0.12380328509721     -0.62843035191958
  C   8.27707044592368      0.18576337653905     -0.84647637840386
  H   6.69060734415284      2.42474361955996      0.19412931187735
  H   5.03470043759017      4.43463679211544      0.69637978794966
  H   5.62048602855014     -2.02129241252273     -0.90310516846133
  H   9.31636290673939      0.24168031475843     -1.05892980180962
