22
Coordinates from ORCA-job 13653optt
  Br  0.57019886704563      1.03960264192908     -1.96653459497882
  C   2.49479054000260      1.07241634389081     -2.05724021965699
  C   3.22109570337194      1.56947250144198     -1.02226479901440
  N   4.59332662588806      1.50351472969624     -0.94969055337841
  C   5.16030529079197      0.43921284319260     -1.46779551307763
  C   4.44175209010926     -0.56758498155312     -2.19534205107667
  S   3.25558233725261      0.16799554313127     -3.34009236774498
  N   4.40991741841547     -1.84375327609780     -1.92726311284232
  C   4.79221705118508     -2.24147617755505     -0.65688535080084
  N   5.49846161185933     -3.29510952795888     -0.46129913573171
  C   4.26397137016086     -1.41567878870867      0.48316178795152
  C   3.09196052995535     -0.80139169184241      0.46266775315282
  O   2.67879355109331     -0.00644522206610      1.52502858182852
  C   2.37170425646501      1.28649612164103      1.32012890008094
  C   2.56798930496950      2.05261141943054      0.23275582495741
  C   2.14091516746198      3.41355584582993      0.34082328091774
  N   1.80037884165792      4.50908458135650      0.42463988194292
  H   6.20056254988473      0.24726440779560     -1.21377399700939
  H   5.58635793396847     -3.46092342932883      0.53893251576784
  H   4.89925340751484     -1.29949061310456      1.35514001656365
  H   2.37695806756308     -0.87910541168378     -0.34555098419105
  H   1.92350748338277      1.71173214056362      2.20945413633987
