23
Coordinates from ORCA-job 13654optt
  Br  6.11166481794340      4.72867099043879      2.55780343532579
  C   6.07548302444387      4.05209877451529      0.76483687064984
  C   6.75889159687112      4.64083658790444     -0.24203507395294
  N   6.74515237453357      4.15131991375344     -1.54063663615025
  C   5.56647094348262      3.83679799030418     -2.01600247422835
  C   4.40954407637453      3.67114472820360     -1.20137735066701
  S   4.84113319098315      2.88013798090218      0.36826460273068
  N   3.17405338137665      4.09266896944266     -1.38678517701498
  C   2.85939266261823      5.16383454948530     -2.17614240699332
  N   1.66115185149342      5.52982354007291     -2.45429313036525
  N   3.90182698088196      5.98413809182150     -2.73575095126938
  C   4.19860479573062      7.03377433687267     -2.13585571341537
  O   5.05024900611791      7.94977663298634     -2.71639619837900
  C   5.86902642472930      8.69341663779956     -1.89913450878681
  C   6.78922599523373      8.15086331366530     -1.09753361458759
  C   6.91255444984625      6.69889774437280     -1.09478174653180
  N   7.17387705413714      5.98955698009374     -0.06743898876994
  H   5.46509877434566      3.74383225618995     -3.09518702120235
  H   1.03787264743790      4.84948989457340     -2.02192520887101
  H   3.82449942946033      7.34987101193488     -1.15818663364159
  H   5.71242168909168      9.76112360062331     -1.99451962181899
  H   7.36789155788617      8.77915779772851     -0.43359793436720
  H   6.60391327498068      6.22776767631511     -2.02532451769317
