25
Coordinates from ORCA-job 13652optt
  Br  1.60814250262513     -0.68234692930615     -2.40788099892554
  C   3.27719476326168     -0.89796281160026     -1.52777281524784
  C   3.77230007508145     -2.09371961959796     -1.18317476320634
  N   4.97031647206933     -2.08117403993821     -0.36469397144177
  C   6.07709945602542     -1.34502331872910     -1.00437010749437
  C   5.80074512149517     -0.08445597360429     -1.38341356857694
  S   4.17760879768445      0.57492459203359     -1.25742670013735
  N   7.34882499863590     -1.84939691378731     -1.08779820597614
  C   7.80586853684502     -2.64788847799671     -2.04697688500115
  C   7.03928755034223     -3.47452819188379     -2.90919414404431
  C   5.77498864848456     -3.83268856447541     -2.49974244829207
  C   4.66383853478581     -4.41189755140382     -3.18074378904960
  N   4.59250774598923     -4.96254940105849     -4.35545748767721
  C   3.40147610651586     -4.32328242454225     -2.40003483348411
  C   3.05831418813512     -3.35561895432393     -1.54203035292186
  C   9.23767328698483     -2.68238978640564     -2.21416168116727
  C   10.42951947221312     -2.73288739479849     -2.37510529090946
  H   4.74381350353336     -1.56282080773754      0.48381606766623
  H   6.53975088572926      0.56125660398885     -1.83354903043102
  H   7.47986360512749     -3.78818914868682     -3.85021885453701
  H   5.59046153064668     -3.65830178715905     -1.45631844062833
  H   5.51569679476014     -4.94002346153416     -4.79049323315136
  H   2.67055923215765     -5.09921776053392     -2.60695599873263
  H   2.06352011313614     -3.42075118843866     -1.10801286061732
  H   11.48262807773471     -2.77606668848035     -2.50628960601513
