24
Coordinates from ORCA-job 13660optt
  Br  1.34555686144611     -0.08227926874646      1.03941311106655
  C   3.15683570472280      0.02048963631228      0.42664895924123
  C   3.69399188887092      1.22893911963303     -0.04892824653581
  N   5.11895542195722      1.21935139614056     -0.20728161982132
  C   5.85869694453336      2.37790398602936     -0.00041965348406
  C   5.41605643582771      3.60761938794988     -0.25599569623349
  S   3.84962426186279      3.84286045296679     -1.01870496169051
  C   2.92382294200929      2.35482383894151     -0.45938796404365
  O   1.71438634926841      2.47558698047863     -0.50219921954804
  C   6.16792722882901      4.84203307574714      0.07853388127248
  C   5.86238106466025      5.57996919486480      1.34978486688278
  C   7.17726304486589      4.87431492560064      1.18555535053314
  C   5.83197226201647      0.00730175528186     -0.29571542740643
  N   7.07789069604857     -0.07464695093123     -0.63189608839431
  C   5.08425073419091     -1.14876276032389      0.09745555568966
  N   3.82102174923063     -1.10370126010173      0.51335532065406
  H   6.83786816624344      2.21615915221894      0.43596297039718
  H   6.38842007158284      5.47533628944579     -0.77462990906103
  H   5.13022936649535      5.12218886308205      2.00057634413835
  H   5.84934807753136      6.66063849473718      1.32482807541703
  H   7.33083741354872      3.97075937720547      1.75712003258643
  H   8.06499902547634      5.47352531410756      1.03834735619154
  H   7.43233584983280      0.81980549102247     -0.95735619949186
  H   5.59932843894875     -2.09921649166263      0.09493316164006
