22
Coordinates from ORCA-job 13669optt
  Br  4.02286004695454     -1.19564197001805      2.86807656173951
  C   4.29756386538525     -0.72878496919155      1.04328711801743
  C   4.94821372661085      0.38757140164278      0.70012271282208
  N   5.17270218187013      0.60976576470779     -0.67552144323932
  C   5.98353832900965     -0.41893692263979     -1.28419006320510
  C   7.18886666741346      0.02529152298719     -1.84650385404877
  S   8.70735742065855     -0.81221720035418     -1.85155538167414
  C   9.39187396743191     -0.49397629131744     -0.21095805797858
  N   10.52671224330594     -0.02944753372570      0.05336379128803
  O   8.64376548135807     -0.99394586602500      0.84981655935970
  C   7.51456325813193     -0.44743869781809      1.29752496910739
  N   7.22233001224426      0.78190729295763      1.27560156467399
  C   5.89213875145248      1.12507668286257      1.61674109562404
  O   5.60908561681613      1.95211434347554      2.43801863618605
  C   5.48404227167254     -1.73525433499349     -1.18408068405941
  N   5.90208077950677     -2.84667436139525     -1.71105797136022
  S   3.97517452310643     -1.92567765028042     -0.17890139621379
  H   5.59618278988824      1.51377570958062     -0.83276669960262
  H   7.31419979759463      1.10179346712080     -1.89027139124724
  H   10.98509295665810      0.23320425503475     -0.81698253081856
  H   6.88842597786064     -1.22236181389647      1.74153762898584
  H   6.68622933506939     -2.64114282871423     -2.33030116435630
