22
Coordinates from ORCA-job 13675optt
  Br  1.03316042173933      0.08142964465144     -0.13574940025566
  C   2.90306552230824      0.04031431789976     -0.00421242778608
  C   3.63636842878478      1.18712227969262      0.02852319134668
  N   3.28342321789000      2.51203905533358     -0.03855591616304
  C   4.43085437492273      3.16031409005553      0.00206977617914
  N   5.54008076207677      2.39712333203907      0.12685748455505
  C   5.07034384242534      1.08899098500900      0.13692642460236
  C   5.68810002475371     -0.09092489930802      0.20981011927394
  C   7.16027511722534     -0.24505776770891      0.42031604311697
  O   7.64052371375447      0.88453393562217      1.10074071454587
  C   7.96285342041836      2.01484386552100      0.31618581621995
  O   9.14722170600745      2.25042559515830      0.08913534212201
  C   6.88156529455161      2.86303140397345     -0.07105044410182
  N   6.98422896950641      4.05323759535335     -0.61051799385909
  O   4.95123775701714     -1.22083639967921      0.15725649179686
  C   3.56041743844741     -1.24659848445851      0.03674430672247
  N   2.97632055946424     -2.37460121534664     -0.02408550308531
  H   4.54255081648678      4.23024385766452     -0.07789418702321
  H   7.68504049489062     -0.38460712703376     -0.53276260577746
  H   7.34285271453775     -1.12488107335404      1.04169626914238
  H   7.97748031593669      4.27116445773720     -0.65336121105893
  H   3.66303508685475     -3.12230744882190      0.02592770948691
