22
Coordinates from ORCA-job 13674optt
  Br  1.08748988488726      0.33867423248856     -0.00296293515369
  C   2.95329827357232      0.05922100644501      0.16569029802283
  C   3.81475934566904      1.16406683291780     -0.01073318578981
  N   3.47922782346142      2.44763445863798     -0.34682415133749
  C   4.59125059108709      3.11810996516678     -0.46269663595541
  N   5.71393253419279      2.33632934448248     -0.19469486250455
  C   5.22369643302459      1.05146902401243      0.07453878669947
  C   5.96346598158100     -0.08005310111055      0.24129289029229
  C   7.42091109469142      0.00282581013489      0.04894479815636
  O   8.05912166585227      0.86956770890351      1.01816108632653
  C   8.01996221108653      2.19566210503115      0.82528762471602
  N   8.82114256651781      2.97186235555836      1.42278698773072
  C   7.00075328890837      2.85834772965778     -0.09699120831287
  N   7.25859592394730      3.96854751935247     -0.65475298774584
  S   5.16907509509909     -1.58641627997920      0.59749148353340
  C   3.35042273095179     -1.25347095460946      0.46336116012111
  O   2.67574277923712     -2.25160820216881      0.65596274239955
  H   4.70153926040802      4.16281723732780     -0.69358905535881
  H   7.66672158265408      0.40524671114909     -0.94458041308685
  H   7.91018407179449     -0.96100707237673      0.16882204083075
  H   9.46509627048195      2.42091749937943      1.98872303662948
  H   8.19261059089419      4.26125606959921     -0.37723750021317
