25
Coordinates from ORCA-job 13688optt
  Br  0.88113750804268     -0.17723901740548      0.06215103809344
  C   2.76724928526138     -0.17454726516276      0.19589916785420
  C   3.52843698017993     -1.30169607299929      0.06895457658564
  N   2.92078119926270     -2.53111096334380     -0.23833124395028
  C   3.68679582988980     -3.54610398240630     -0.27764821341307
  N   5.05208707290213     -3.55688311896085     -0.16914211226084
  C   5.72436175296053     -4.78064058399598      0.20513469699324
  C   7.20880982679269     -4.71086138035126     -0.04614856631022
  N   7.83597389970842     -5.68978047406062     -0.53819099024292
  O   7.82127969297548     -3.57336041086496      0.33904204167098
  C   6.97581820310510     -2.51967159172513      0.83014858501892
  C   5.80604469790049     -2.30613062882769     -0.11440903753412
  C   4.91969514821207     -1.17133146627019      0.28358779041011
  C   5.45699750574572      0.09931871218822      0.59225994337248
  C   4.65283358884068      1.23655842481686      0.74845056491602
  O   4.95846991932992      2.37701847084759      1.04214490863410
  O   3.24795682606699      1.04352343141947      0.53036446136187
  H   3.25045993173285     -4.53416398284964     -0.42387625736029
  H   5.32994894099298     -5.62681071403204     -0.35494042537214
  H   5.59559463957288     -4.99925718438684      1.27665284748061
  H   8.83155079526459     -5.47172439961836     -0.58288255801393
  H   7.60648793530034     -1.63760254905872      0.87724999217787
  H   6.61798792938230     -2.76280193738171      1.83451859772447
  H   6.25742328525654     -2.12434373073402     -1.11009688731894
  H   6.51581760532071      0.26364241516351      0.73110707948281
