24
Coordinates from ORCA-job 13695optt
  Br  1.52117921674360     -0.93612661547839      2.79589838067660
  C   2.83205118369142     -0.78899117374759      1.43259500064677
  C   3.04533128019167      0.40846226562908      0.86512353923844
  N   4.17702412978940      0.52946686326094      0.06403196532148
  C   5.12699941586432     -0.46716870476971      0.09355856419986
  N   4.88775870540343     -1.66199558445480      0.47187614350112
  C   3.55021171129346     -1.95698847394128      0.83110241437989
  C   2.74412426224328     -2.62684925291451     -0.20163944036761
  C   1.31518248721256     -3.02541397557235      0.03940227873857
  O   0.52295007649785     -2.04388234820837     -0.69672465430668
  C   1.40145680861933     -1.38626835204932     -1.53987551546783
  C   2.70397003963569     -1.90572904584095     -1.39504231397551
  N   1.41152266073806     -0.06061765034730     -1.60135392206526
  C   0.74740702344910      0.65698094280342     -0.70698474418840
  C   1.51580609129323      1.81919525642917     -0.25640283801091
  N   1.68304717964835      2.98725144062109     -0.69507826582600
  O   2.29174413701950      1.53040598345268      0.93278297448436
  H   4.35574042987394      1.42962488993260     -0.35054083218262
  H   6.12102334981296     -0.17780103918550     -0.23462552455954
  H   1.08517885614167     -4.00505442428887     -0.39486508754259
  H   1.01211811083156     -3.02440523227424      1.08448054128567
  H   3.54288730510298     -1.39260642249320     -1.84081890474950
  H   0.17109461665372      0.14064553162566      0.06130957438455
  H   1.03219092224886      3.11786512181176     -1.46620933361485
