22
Coordinates from ORCA-job 13696optt
  Br  0.84879679950124     -0.69866320320522      0.35574475679647
  C   1.95432764896068      0.73650381419080      0.88760018397988
  C   2.76259341974689      1.49865791537022     -0.02092945839711
  N   3.86656892402402      2.04683315674567      0.66120775344002
  C   3.73580307690684      2.31669395394296      2.00008690628813
  N   2.61293124812470      2.22633792291041      2.62420218803348
  C   1.56383430157305      1.73872434620738      1.87973063519167
  C   0.36409402728695      2.45278704907382      1.71946186065186
  N   -0.24305056275789      2.24157190546923      0.51356180885943
  C   -0.70334448199010      3.37284910620214      0.08311472645430
  O   -0.64970442244471      4.36492367285434      1.06286019293744
  C   0.04614082066094      3.82084202616325      2.14293580592877
  O   0.26605527268413      4.47030220310394      3.13096889816165
  C   -0.51717306903893      3.76783588052725     -1.29449531885046
  N   0.39771173791705      3.21817590062485     -2.05226619042280
  C   1.01590702734840      2.08134406060792     -1.61998661191224
  C   2.33698407595536      2.13457203529694     -1.21504482715925
  H   4.54631656202209      2.57543277508355      0.13728847059840
  H   4.62677247427791      2.66194322493489      2.51187545521807
  H   -0.94790313737913      4.70396064870411     -1.63419633652430
  H   0.41127439236858      1.21999075837258     -1.38308163431075
  H   2.91306386425190      3.00038084681892     -1.53563926496265
