20
Coordinates from ORCA-job 13693optt
  Br  1.15863053739736      0.11953963210249     -0.05876461149183
  C   3.03593642697199      0.00094611990207     -0.04163114969401
  C   3.67480044839934     -1.17944407774677     -0.03627174037895
  N   2.98174252408269     -2.38238932215850     -0.03924681992804
  C   3.63593561805593     -3.46981380017868     -0.03481636539222
  N   5.01701365821443     -3.50386635353940     -0.02781222826901
  C   5.84799735862176     -4.60693714041920     -0.02473415748807
  O   5.52903560719188     -5.76713742559160     -0.02663747401864
  O   7.09994552355417     -4.12854325502088     -0.01945602987506
  C   7.06555728649368     -2.71733009483708     -0.01976027869448
  C   5.78142001160927     -2.32804105410132     -0.02474629875636
  N   5.09007591851362     -1.15580467491720     -0.02716977022396
  C   5.80098242786043      0.09463745207479     -0.02439297058042
  O   7.05169467428874      0.05567346462836     -0.01808487044732
  C   5.02892160405052      1.28762661987901     -0.02730333060071
  N   5.47058694044084      2.49772689723046     -0.02264892897328
  O   3.61137818507167      1.20522371290766     -0.03685337238464
  H   3.15085857824745     -4.43852495295145     -0.03645557059646
  H   7.99257155499805     -2.18559312420822     -0.01611471704866
  H   6.48691511593614      2.43205137694547     -0.01609931515791
