24
Coordinates from ORCA-job 13699optt
  Br  1.43129412724143      0.51105332813443      3.11289506601484
  C   2.94803391317626      0.13426201095724      2.02115680002957
  C   3.33867560518856      1.03901034718438      1.10812983452805
  N   4.48442970536709      0.69816379528225      0.36936958125745
  C   5.33442283821756     -0.25720758788142      0.90684827327183
  N   4.95919715279126     -1.15299966180409      1.72520889358024
  C   3.51644381505188     -1.19495273633900      1.94483312671034
  C   2.81027696279730     -2.18154755020417      1.13666051293782
  C   2.22534419815520     -1.59029323996331     -0.03188038322493
  N   1.50455896850208     -0.46779612142182     -0.01370093476210
  C   1.79498282009128      0.16737129149066     -1.16208636364739
  O   1.47603274364638      1.50215292820623     -1.28287208456116
  C   1.58861342432322      2.31850052907673     -0.18917517520702
  N   0.80723855373789      3.30803803654604     -0.05765071282121
  N   2.67860322826290      2.22184690333383      0.69344005278768
  C   2.47770770499015     -0.61216677855122     -2.04025571530390
  N   2.66831360098032     -1.81034261457769     -1.33353866315390
  H   4.85364382270757      1.41462360528093     -0.23210576494246
  H   6.36961453652009     -0.19192051307561      0.57465727981885
  H   3.35571751187289     -3.10880552240190      0.98502411119580
  H   0.11874124143023      3.28547214769291     -0.80292190659225
  H   2.50770676164614      2.88265714810629      1.44016814546643
  H   2.78838600429748     -0.46664044537543     -3.05883330308434
  H   3.46702075900473     -2.39947929969631     -1.49537067029825
