23
Coordinates from ORCA-job 13702optt
  Br  1.17286711748052     -0.53806453824703      1.03116514309309
  C   2.52359998780646      0.67886482817115      0.51895589902183
  C   2.90418016855042      0.78675703486440     -0.77144247061567
  N   4.08674321995423      1.43802727395335     -1.12160757565858
  C   4.74220597290767      1.98393422601946     -0.16885555942486
  N   4.31606379995285      2.06255793213552      1.12139457108479
  C   3.00569821382440      1.67507769022784      1.46533111238363
  C   2.31375338024449      2.31493516575483      2.41942133032955
  C   0.89697309996712      2.07133276697318      2.75731013365805
  C   -0.18259461549526      2.66110144937311      2.24311704262775
  S   -0.32412698254610      3.96950763749333      1.05644276902958
  C   -0.22523001825554      3.18877384062320     -0.63750380085804
  O   -0.84468324728268      3.76718084515870     -1.50887669966458
  N   0.61552691787703      2.15804861073637     -0.67191056547452
  C   0.80123879666098      1.44679901423837     -1.78301762476815
  C   1.92854759100558      0.55831516241138     -1.90471586631424
  O   2.15355692911554     -0.16631544269038     -2.87858067695046
  H   5.72067263654195      2.41532715179929     -0.35876839916787
  H   4.79202432289527      2.69507299039373      1.74468697022637
  H   2.81985388610559      3.11785629732255      2.94973402797704
  H   0.69510456252373      1.31609202674475      3.51612424401455
  H   -1.14310908319751      2.33429560051268      2.62957895976736
  H   0.14813334336321      1.53352243603018     -2.65098296431663
