24
Coordinates from ORCA-job 13706optt
  Br  0.87315495213235      1.05685414201101     -2.03928768911382
  C   1.93614941871205      0.63382853250712     -0.53160838301083
  C   2.86979944749877      1.55742506194568     -0.02817587966055
  N   4.04651794770722      1.05640450803232      0.50627434462146
  C   4.04590375062113     -0.18560775257660      0.82342258291137
  N   2.93875279361546     -0.99432950560628      0.77516657692558
  C   1.71180051440964     -0.50857567000997      0.27915210881496
  C   0.55663104445012     -1.08454242857431      0.73505509631923
  C   -0.77648548371175     -0.53674508358888      0.91717554121012
  N   -1.60921978575105     -1.22817228336551      1.61823137726754
  N   -1.23167965586472      0.68260309305828      0.36025443246255
  C   -0.69969577771341      1.81792528535645      0.40737138481679
  O   0.42766509948593      2.15606172744050      1.06268133849181
  C   1.20470197494410      3.21097795258602      0.56507857741147
  C   2.50852140098260      2.92412605322930      0.19600816099447
  C   3.51112929760436      3.97045862262015      0.09804552738671
  O   3.32240416986537      5.15825979087432      0.30015274930986
  H   4.95062864025287     -0.65524703806316      1.19515909172842
  H   2.89783937174861     -1.77738192345398      1.40946674228001
  H   0.66384562547554     -2.01520498905004      1.28235515269337
  H   -2.48903927340430     -0.71788343351712      1.66349903384367
  H   -1.16387481720978      2.64868198854442     -0.12518527557075
  H   0.80293083175224      4.20703835522661      0.68172905190892
  H   4.50761851239663      3.60804499437365     -0.21202164404236
