26
Coordinates from ORCA-job 13711optt
  Br  1.37622114457354      0.92413801874848      2.28521008749737
  C   2.97878486172346      1.29331783738301      1.30627393967379
  C   2.97390085042453      1.12612167183484     -0.11874522119395
  N   4.32718735116397      1.03221546083253     -0.59014935067525
  C   5.25584219154092      1.77860921809892      0.03899240925988
  N   5.02843898661437      2.54081645990168      1.05225433025577
  C   3.76278987874200      2.47389403505487      1.65685922343358
  C   3.26356189257477      3.53826545612170      2.34284192461326
  N   3.81773524547888      4.85228151510562      2.22349085061761
  C   3.34423648753088      5.72773421557146      1.27455092450845
  N   3.46486786072641      6.99827409226563      1.24242034380133
  C   2.70813812057993      4.97901867264834      0.13735988063075
  N   1.51833617314678      5.11460109284475     -0.26625426184283
  C   1.11085796743398      4.10069195624971     -1.21607792365247
  N   0.80760938632640      4.35468738447243     -2.42487783620195
  C   1.19926905910626      2.79356606417437     -0.56053420643352
  C   2.13305208240260      1.89607149058484     -0.98436833123592
  H   4.55019459947477      0.58067311868644     -1.46126629377228
  H   6.26641696625023      1.71137613989513     -0.35808088410586
  H   2.29740953718579      3.45938779230372      2.82195411821094
  H   4.29580503128375      5.26997201042194      3.00888625291717
  H   3.93957518588013      7.33051533259323      2.08355136373020
  H   3.36998681304160      4.21056306671578     -0.27430892411378
  H   0.94519936968272      5.34989618248781     -2.60077133814400
  H   0.96547532902283      2.82554123331057      0.49432810847466
  H   2.44310762808845      1.95277048169211     -2.02653918625297
