30
Coordinates from ORCA-job 13717optt
  Br  2.11504892928035      0.06729140722836      1.70231999335086
  C   3.62455860179905     -0.01616850766340      0.55595383402996
  C   3.90177695154852      1.02795010341551     -0.32206769677558
  N   5.09271460756322      0.87991240488607     -1.09611797620607
  C   5.65178990966429     -0.36972455081250     -1.14875784961200
  N   5.30267228866976     -1.41168382014938     -0.50307311572260
  C   4.30393955117842     -1.27843801668939      0.50444008520572
  N   4.04351035283225     -2.27576888961045      1.27903889860281
  C   6.09774463441759      1.96208790943168     -0.95911576349140
  C   5.82931453818523      3.31633311786326     -1.63070296663214
  N   5.29288160848524      4.23406722158074     -0.61621128892073
  C   5.42580397255319      3.63819977216486      0.72875089595312
  C   6.29285647910262      2.37478803950690      0.51053101411083
  C   4.08112219107964      3.40858947586548      1.47282438363233
  C   2.83775820338029      3.15030266545823      0.60119205517575
  C   3.17314969866600      2.24455554208104     -0.57331245219412
  O   3.06967031083493      2.71189138752199     -1.73450070054830
  H   6.50297558862791     -0.44699429666477     -1.82528371606595
  H   4.64422398341852     -3.04448893232400      0.98840376288552
  H   7.01852486180653      1.54248072959843     -1.36634598664849
  H   5.14168227077366      3.22444607427710     -2.46797713842720
  H   6.79142026415732      3.69475856476976     -1.99436314073831
  H   4.31883686259100      4.39364348207691     -0.83500736402400
  H   6.00329362755851      4.32139909008223      1.36013812147925
  H   6.04574307953241      1.56634769495325      1.19972949592832
  H   7.34360586267592      2.63703228935056      0.65445124032012
  H   3.87868116554675      4.27771910232286      2.10627154600017
  H   4.21548579098509      2.55979352959470      2.14943724011023
  H   2.46924990386279      4.07988105863808      0.16094893552982
  H   2.04496390922289      2.75979635124584      1.23840565369205
