21
Coordinates from ORCA-job 13718optt
  Br  1.85012771084152      1.46002442999459     -0.38462567673974
  C   3.59124355056304      0.82899763560193      0.02529559688602
  C   4.64975162039355      1.73417612850171      0.24798484926344
  N   5.74966053271939      1.05454654360931      0.82085449861559
  C   6.08920250553891     -0.13934322951595      0.14543943774889
  N   5.15758909976784     -0.97667219090739     -0.16056629866652
  C   3.86879918025509     -0.51590585103671     -0.05130443467162
  N   7.42604963287054     -0.33176239120854     -0.17316062975269
  C   7.93682664636873      0.68999667746078     -0.77701847164867
  N   7.15846772098384      1.72255060329111     -1.23377798284877
  C   7.55643609388159      2.90141086439949     -0.83143346584312
  O   8.95247215040828      3.09593658040390     -0.64910668470884
  C   9.72090353630335      2.01718458903092     -0.86759693726215
  N   9.33350267829592      0.81217593003289     -0.91563737637414
  N   6.86510796207688      3.95551723268500     -0.52029437904519
  C   5.50850278783864      3.93311857723508     -0.31562696240657
  N   4.59969246331484      3.03025903923906     -0.04902740776214
  H   6.53360357735428      1.65630507696216      1.01558083297532
  H   3.07793780940021     -1.23875124804977     -0.19836162737821
  H   10.76735258174718      2.28212935663626     -0.98250815701023
  H   5.09577015907629      4.93810564563416     -0.37310872337063
