22
Coordinates from ORCA-job 13714optt
  Br  0.87728819889388      1.31166050193545     -0.06512242100942
  C   2.47684707734639      0.51267052975140      0.58804449381014
  C   3.06981015286989      1.00994963623397      1.77975184579341
  N   4.00054987519921      0.08745224709420      2.34389499524206
  C   4.76004267866897     -0.58634538626507      1.44844144679074
  N   4.61771848798194     -0.54242053656838      0.17116909881445
  C   3.54094177959508      0.18073027262760     -0.36135071399660
  C   3.65659925220142      0.82664608642087     -1.53862024687136
  O   4.93460224353153      1.18719798972633     -1.98190525847891
  C   5.64044381670723      2.01148202144745     -1.17366461044380
  N   6.83506992053533      2.33627018650769     -1.37604232725783
  O   5.01642043808843      2.43896804865543     -0.02872481470998
  C   3.93321603991888      3.27841835964747     -0.12884825166926
  O   3.73261362103258      3.96131160861805     -1.09954312661368
  N   3.19824562051970      3.29729927815848      1.01516090492410
  C   3.31677833351239      2.36648337419248      2.12174539044947
  O   3.68416916113476      2.78348872043318      3.21918978045536
  H   4.38398924534375      0.31736803805992      3.24835461306710
  H   5.54227766394994     -1.21255138933326      1.86928062806374
  H   2.85941880246717      1.38448097772568     -2.00171735749707
  H   7.16276391442776      1.85500404037028     -2.21008402903063
  H   2.55419367607369      4.07043539456074      1.07658996016796
