22
Coordinates from ORCA-job 13713optt
  Br  1.26110751506460     -0.76528833375168      0.60437847640299
  C   2.87788541010705      0.18814873835029      0.40880833101330
  C   3.41189902001914      0.69037029293314     -0.87118019672658
  N   4.84816354546583      0.65489707991188     -0.77669700858898
  C   5.34429277340903      1.20657576538505      0.36475428692999
  N   4.62188522137284      1.58589950041206      1.35578243173437
  C   3.25053767312965      1.26608856853274      1.33225767356565
  C   2.31242378981395      2.12769053992076      1.77187441030646
  O   2.67153395357825      3.43325213703566      2.09136841180946
  C   2.96113725382682      4.24133456969314      1.02637709742053
  N   2.46845512177306      4.29960791577098     -0.12165467828040
  C   1.29201505847892      3.51636378988072     -0.49136147809580
  O   0.21066664093116      3.97247881965526     -0.13955278150519
  C   1.54881877924334      2.28613643691446     -1.14568889883259
  C   2.86513552635983      1.85466655614694     -1.36693028458920
  C   4.00151011914239      5.19924560333197      1.39992827122692
  N   4.80286084458333      5.96713377806566      1.68430644210817
  H   5.43360694825620      0.57145494395077     -1.58942841885563
  H   6.42444128911336      1.31430345986070      0.41990605474978
  H   1.25497096743499      1.91510192243148      1.79996260907628
  H   0.74004724804945      1.57251715959981     -1.07266847447269
  H   3.58260530084676      2.58002075596817     -1.75754227639685
