22
Coordinates from ORCA-job 13727optt
  Br  1.95287178137851      0.15376471945809     -2.10596341884216
  C   3.56034907315398      0.40592917717856     -1.13669811422049
  C   3.88487057646551      1.56623586366143     -0.38801142624249
  N   5.25380244833067      1.80699806635698     -0.24044856647561
  C   6.06061284426137      0.84520200809770     -0.45080756961224
  N   5.68091729933866     -0.48287175992367     -0.69151560216524
  C   4.31204858735372     -0.74491771462579     -0.68755868546808
  N   3.86169910425923     -1.84806746754313     -0.17070135623951
  C   2.54669445956180     -1.65708024120745      0.30248921414462
  C   2.35153535609370     -0.70416964473619      1.21120626732873
  O   1.09478216082661     -0.16691260107726      1.46711453465278
  C   0.86301013448107      1.05276924164721      0.91518906987225
  C   -0.61761235478158      1.31927380669210      0.80730099171337
  O   -1.47905594687601      0.56671140552296      1.16153014720608
  N   1.60414829821791      1.97323467202475      0.49006295387355
  C   3.00934413022427      2.26768603352570      0.51542388278963
  O   3.35868640333225      3.13888435093638      1.30187986558291
  H   7.13242739794115      1.00822515645557     -0.40573851002817
  H   6.24089950780881     -1.19835864529163     -0.24612403512962
  H   1.71009393797872     -2.18884724541146     -0.14082434547629
  H   3.17628278468352     -0.17225449813815      1.67108579210097
  H   -0.82340798403392      2.30456531639732      0.35510891063501
