23
Coordinates from ORCA-job 13729optt
  Br  1.11029480193330     -0.13772272697446     -0.06695808853285
  C   3.00329808903084     -0.13478570857677      0.09833115709678
  C   3.68790735242935      0.94660949095918      0.63038398385782
  N   5.05623802390407      0.69038249612094      0.84843315198912
  C   5.71039337172732     -0.15043501059626     -0.08207161475129
  N   5.05475773252382     -1.17664060211107     -0.55871037745554
  C   3.71260023105059     -1.23952227313940     -0.33982647726543
  N   7.00060105119396      0.04757049801085     -0.40371242033545
  C   7.58270033417830      1.21242802571729     -0.66137934279715
  N   7.12992220861694      2.44069812415280     -0.83181657136293
  C   5.78683848616672      2.65400110395501     -0.79316445373372
  C   5.23500150011765      3.70605020790498     -0.15816277859967
  C   3.82709277431745      3.84274430240065      0.21852324117327
  N   3.16594732307479      4.92551596245426      0.29356561000313
  S   2.94665848264439      2.47558885461227      1.02932091454144
  C   9.03354667405701      1.10582034985130     -0.79963948032844
  C   10.22374132283961      1.02114337517629     -0.91548513222032
  H   5.60000954044201      1.45811341452121      1.21157951230775
  H   3.19993450137865     -2.14096268605141     -0.64713836687153
  H   5.12933795371380      1.92466050158443     -1.27138271955210
  H   5.89660664887728      4.46160331298529      0.25515599512622
  H   3.73486242746728      5.69203038110855     -0.06860758865708
  H   11.27770916831474      0.94210860593400     -1.02223815363202
