25
Coordinates from ORCA-job 13720optt
  Br  2.76714617004880      2.43994284151974      0.31328753593374
  C   4.37076835861886      1.44619735126540      0.09167665437214
  C   5.58015557644261      2.06290407397127     -0.31032306704041
  N   6.60890310485785      1.12861099415861     -0.32990498854224
  C   6.50080597343981     -0.26456498992915     -0.27383496325924
  N   5.34023605681180     -0.78128736184351      0.18658088986953
  C   4.33926416063341      0.08985642875844      0.36337196127487
  N   7.53710956437288     -0.99102287682247     -0.65666298810875
  C   8.34415779983439     -0.19053019793320     -1.43875998874911
  C   9.53695511358598      0.40101913657769     -1.19667180684993
  C   9.51628115559183      1.86839765147898     -1.45524212742411
  C   8.44480070065313      2.56499462967420     -2.00237807963255
  C   8.06265642899216      3.57849301720233     -1.07742348699565
  C   9.07355633288107      3.66428102393816     -0.14563655273666
  N   9.97944244130544      2.64824628082072     -0.41802496904045
  N   6.79988048097639      4.18180597234405     -0.99661491213854
  C   5.76066851988031      3.43838728638428     -0.65601331968552
  H   7.53001556423057      1.50589371041755     -0.44944248057456
  H   3.40685709746073     -0.33079058596442      0.72815751428805
  H   7.79944234942122      0.26038762069102     -2.26833115154471
  H   10.14559321101917      0.07479321035824     -0.35886937997576
  H   7.79471355616375      2.21010307439040     -2.78350635453224
  H   9.20021305719311      4.33234656507087      0.68814835660775
  H   10.60631937182225      2.28511345761497      0.27762508367932
  H   4.82905785376240      3.99342168585580     -0.59620737919497
