22
Coordinates from ORCA-job 13722optt
  Br  1.22893754258170     -0.03235281256694     -0.38519497678624
  C   3.08563303643791     -0.10871551242736     -0.04994100633853
  C   3.80950717552284      1.02532687068469      0.25528917544912
  N   5.12979453539462      0.78861529287824      0.54735252540820
  C   5.80342709412411     -0.21760295834805     -0.19099021582896
  N   5.10009779842987     -1.38433796739113     -0.33984197727242
  C   3.80457297481597     -1.31559282206232     -0.23395180117714
  N   6.98557586559623     -0.07737707681712     -0.68735593354679
  C   7.67927549649793      1.11310415322579     -0.72592576286668
  C   7.18502134042153      2.42299186343247     -0.75709843315797
  C   5.82933303980873      2.70903901052862     -0.94014548914647
  N   5.20312972995622      3.71267768149688     -0.32825979481526
  C   3.92124726466115      3.62006169836128      0.02869434289857
  O   3.14418114334556      4.53368738794338      0.24607411236562
  N   3.32554516673581      2.28926060391264      0.26925937297551
  C   9.10592560373641      0.95676737402238     -0.71903256192082
  N   10.25460051477390      0.86674816855258     -0.69186544455044
  H   5.67857661939472      1.57952929629927      0.84588140301061
  H   3.24607702251589     -2.23813804184499     -0.36582720048762
  H   7.85256106807338      3.22797633460992     -0.46885262990201
  H   5.25406004600035      1.99052188953295     -1.52789682229843
  H   2.31791992117503      2.36480956597681      0.28162911798815
