22
Coordinates from ORCA-job 13739optt
  Br  4.08725889544000      2.12381186922170      2.52775034468367
  C   4.42622116458503      1.64790366964528      0.73985231562679
  C   3.47060802909331      1.75396956766314     -0.22703277307509
  N   3.64440139879113      1.18114614101305     -1.47718265697567
  C   4.78686344463144      0.64511870326774     -1.71470203229423
  N   5.83860046619546      0.68455623453320     -0.86873756034691
  C   5.79461840079559      1.51284638376893      0.27193400817204
  N   6.88597765618484      2.04972044062814      0.62800769787128
  C   7.01448171133609      3.21551611999482      1.41841576459729
  O   7.91770915487907      3.30562565543689      2.25092079846958
  C   6.13732272598627      4.32343963350519      1.11797105797337
  N   5.06275558265775      4.18537826624211      0.33787410338608
  C   4.16607752104861      5.16538749318395      0.31402625551628
  O   4.27076068814331      6.36315897257560      0.56911903818660
  N   2.81171365087395      4.76410959152016     -0.04533350533076
  C   2.04852167038675      3.62775016522796      0.01262858919828
  N   2.25443154763951      2.37148063236904     -0.05004280456159
  H   4.94824449993973      0.11759851975607     -2.64935623190926
  H   6.77158388294300      0.50258784414192     -1.21229501890357
  H   6.32362832802171      5.23664074689911      1.67909281167527
  H   2.24377622655722      5.59727287780519     -0.00158708436879
  H   0.99544335387014      3.90198047160076      0.09367688240934
