24
Coordinates from ORCA-job 13731optt
  Br  0.91480840242793     -1.23496094531257      2.27886915963248
  C   2.52079358220928     -0.83865913048901      1.40004391146357
  C   2.90526251006285      0.43822623494597      1.18174828457490
  N   4.19605223972415      0.65275403895245      0.74193602334143
  C   5.08521490679026     -0.37868311569527      0.75638480023834
  N   4.75965330475838     -1.60719679404505      0.88386009252081
  C   3.37990745661157     -1.90446725899067      0.84157970993910
  N   3.02462953813609     -2.98655796778620      0.27559992744541
  C   1.72390708466152     -3.24649254957494     -0.22307715863094
  N   0.96061947335192     -4.17222945577550      0.19294166626269
  C   1.40760191512791     -2.31585421223360     -1.34735605098227
  N   0.57290049315277     -1.30516597683591     -1.00796880711631
  C   0.99296509642787     -0.07785390394313     -1.23052016206580
  C   0.60156878132184      1.00917813556504     -0.43227761079147
  C   1.68585321423927      1.86609609868881     -0.06538273313698
  N   2.43442426658609      2.69150002858226     -0.67306543298946
  O   2.17008052508892      1.56430160108697      1.29095541749998
  H   4.41413787853619      1.58664579087820      0.42003055855011
  H   6.13082404349276     -0.09970469958700      0.66899669797283
  H   1.38600879838616     -4.60564259937839      1.01368968167139
  H   2.26887248490396     -2.08797042469353     -1.98851332957278
  H   1.87216009142815      0.07536170763689     -1.87834739106106
  H   -0.06176987210600      0.74350578047152      0.38104400448210
  H   2.00752378468008      2.90186961753269     -1.57217125924808
