22
Coordinates from ORCA-job 13733optt
  Br  2.10903861642719      3.51270317222494      1.59570226841930
  C   3.30866810265587      2.25306362806276      0.84478545653604
  C   3.09530238539176      1.69299042260096     -0.43819423754826
  N   3.70288787583391      0.51187369370653     -0.69631968111244
  C   4.69275848607824      0.18005652782773      0.10448602788087
  N   5.26826044880805      0.95762155012683      1.02932689628787
  C   4.57778051360864      2.05000488010623      1.36421410614716
  N   5.19970424047200      2.94927327314670      2.23060530557635
  C   5.33807122260733      4.19372545101393      2.05423731118937
  N   5.03249483560545      5.13836769505466      1.06971871074306
  C   4.19968087912477      5.24554917703167     -0.06760773223972
  O   3.73503123349879      6.31724345074915     -0.36281159433779
  O   4.08611062545949      4.12700730709979     -0.74067744263620
  C   2.95137984135318      3.84063239175553     -1.52867177091734
  C   2.56028859945646      2.50466185328060     -1.50398322550209
  C   1.73731089266245      1.91699528154315     -2.52646673431776
  O   1.26144849400707      2.50303016707147     -3.49245447913205
  H   5.15483632674997     -0.78857573184845     -0.06098970946668
  H   5.84693931572158      4.71961163548922      2.86279155458749
  H   5.22051355582486      6.07403705083769      1.39673272796130
  H   2.59414325993532      4.62546233691867     -2.17167033732758
  H   1.51935024871755      0.84566478620022     -2.36175342079087
