24
Coordinates from ORCA-job 13747optt
  Br  5.29502185344771     -1.66459213676988      3.32387383275130
  C   5.80512417658860     -1.55860690513180      1.51347236081820
  C   7.14793862291171     -1.66006776782366      1.14840377480340
  N   7.42549081105209     -1.62535782753004     -0.21861686523749
  C   6.58037669895336     -1.18926951749543     -1.06571738339906
  N   5.26546406084707     -1.01990529252177     -0.75890633643021
  C   4.77673551471521     -1.26064016420861      0.55862106078619
  N   3.52118570966235     -1.14894407122032      0.82772204046941
  N   7.03743231299045     -0.78699556977047     -2.34362452578703
  C   8.46795060506665     -0.87423104358198     -2.42265903363581
  C   9.11204953801431     -0.04818611905228     -1.58096360150792
  N   10.08125144154523     -0.55619418958253     -0.70067412217639
  C   9.48613998062515     -0.51550928861182      0.45594400780490
  C   9.43009059583104     -1.50731515454166      1.51644923893376
  N   8.18906149572538     -1.80793100721168      1.98669130788061
  C   10.58037515911216     -2.16243786648315      2.00075005143314
  C   11.58808880245677     -2.69471875020155      2.40119237661820
  H   4.66814992502829     -0.49792788467417     -1.38036928817808
  H   2.99363203006143     -0.92135333597114     -0.01172788831648
  H   6.48834945175543     -1.11615479573875     -3.12500602117935
  H   8.90173382706864     -1.83425262386019     -2.68019004309151
  H   8.56737768738155      0.85091593942194     -1.27803738554731
  H   8.67520392723380      0.21008225256725      0.60027694047591
  H   12.47077577192545     -3.16940688000630      2.75209550171160
