24
Coordinates from ORCA-job 13741optt
  Br  4.69409634631849     -1.96649213499823     -2.96394962121878
  C   4.75722336650775     -1.01388441031753     -1.34294190881799
  C   5.50371268990984      0.09319605371178     -1.17206093529625
  N   5.26451625712716      0.80913728585034      0.07121968752030
  C   5.79215222040503     -0.14972794323075      0.98648661842326
  N   4.99531245697450     -1.30796456799714      1.05804815040474
  C   4.29272712584693     -1.70507900865679     -0.11480695366220
  N   3.44721026023467     -2.65262518969031     -0.13542956340373
  C   7.05516413365717     -0.00716120234677      1.39509832114440
  O   7.79949668906409     -1.04814202379291      1.82988021135116
  C   9.12165989903071     -1.18384580533495      1.33578819113564
  N   9.78167361011927     -2.07778767247078      1.95676174047576
  N   9.57921540541387     -0.31445186862275      0.39437452835276
  C   8.87080468616084      0.09872377826004     -0.65709513590128
  C   7.73747392413629     -0.58236013637939     -1.20395677180081
  O   7.46590318456955     -1.75925287862011     -1.06701019768104
  N   6.71251164310670      0.34145766688794     -1.79832141519768
  H   4.26455806271035      0.92962237584778      0.20657783949478
  H   5.42772647645455     -2.08410023567921      1.54330723754924
  H   3.34193381734419     -3.04676100755191      0.79857888441102
  H   7.52773861226933      0.96154526732000      1.31579354498902
  H   10.70078718854115     -2.12132531933710      1.52669914840300
  H   9.15788014222796      1.04954566634850     -1.10234505446435
  H   6.99852180186950      1.29873331080024     -1.63369654621099
