22
Coordinates from ORCA-job 13740optt
  Br  6.02331699895591      0.69875032546908      3.23594109129127
  C   5.82882949827443      0.47880334995954      1.37822878646591
  C   6.45291644067805      1.27225864932156      0.47210763929782
  N   6.15091719202777      1.09812562805546     -0.87777967981190
  C   5.39530354347709      0.01900157099885     -1.22371684390364
  N   4.84716245578992     -0.82035707333487     -0.42068231204029
  C   4.93580360587116     -0.60751030070285      0.95607800151233
  N   4.29544876032038     -1.32431348497097      1.79840382559053
  C   6.37057096512925      2.08064570825018     -1.95901828996739
  O   6.18158780716675      1.66307598636571     -3.11133661693356
  C   6.56925945136994      3.45309311055633     -1.67386736013620
  N   7.03280889674151      4.16306687300930     -0.65597806783512
  N   7.67848312955609      3.46786497642239      0.33889754920958
  C   8.74145808391148      4.02411100576883      0.98528029241295
  C   9.20946040899208      3.05850022562932      1.83774418902908
  N   8.45117947152170      1.93875920890722      1.74021300219651
  C   7.52491953030221      2.20788808297027      0.83546509232811
  H   5.27201939147904     -0.08807362757702     -2.29231016303852
  H   3.76448252883392     -2.01337629484433      1.26757572393402
  H   6.30251268905485      4.06646057012129     -2.52831126721363
  H   9.04936106195092      5.02578102701414      0.74547616388328
  H   10.05219808859547      3.11344448261053      2.50758924372887
