24
Coordinates from ORCA-job 13757optt
  Br  3.81562434021803     -0.88231997508685      2.83112027930248
  C   4.44969803676386     -0.48527610469833      1.08048855313382
  C   5.44382310454571      0.47997116124848      0.87174233522172
  N   5.50832365570208      0.87076057846254     -0.55247062694048
  C   5.94940776950134     -0.31110511396734     -1.20275324077915
  N   5.04410263668242     -1.30389277302175     -1.06312045967113
  C   4.09945942265963     -1.37914911103975      0.04381346283757
  O   3.24424360221643     -2.25649401735226     -0.01085388041836
  C   7.22020052379974     -0.42349318605453     -1.71626855324380
  C   8.02425310082075     -1.58489783365857     -1.31016968783624
  N   7.88310422007487     -2.82566151822237     -1.52736420644645
  N   9.02653296544833     -1.14644094140546     -0.36330313012252
  C   9.20765289712208     -1.85060730535227      0.83896473357146
  O   9.83011565023711     -2.84749195405762      0.99287405000731
  O   8.62370450385991     -1.19859631110078      1.92015241630513
  C   7.27680967357017     -0.89865322481115      1.70343462433051
  C   6.80596119468592      0.31829392804634      1.44208683531165
  H   6.20710933399928      1.59433395965817     -0.67129931394553
  H   5.21736062049869     -2.19743055702407     -1.49502909488815
  H   7.77012647957993      0.51178269664713     -1.72318304375708
  H   7.17477400570174     -2.96468220094710     -2.24199608591556
  H   8.81123602950453     -0.19023753687652     -0.12299467985049
  H   6.63662802945133     -1.77510992548003      1.68086910631430
  H   7.49774820335600      1.16039726609410      1.43125960747900
