25
Coordinates from ORCA-job 13751optt
  Br  1.25746326917816     -0.83123117378987      0.31742907324415
  C   3.05193602110923     -0.45228417112638     -0.12367901461035
  C   3.54041814539549      0.86692894879699     -0.18658066460187
  N   4.90438619968198      0.95244169367965     -0.58178558814641
  C   5.61608098753746     -0.17594696738613     -0.80987238733686
  N   5.21411818381647     -1.38496241023183     -0.73565437507392
  C   3.85641355418295     -1.61851454278378     -0.38428070547125
  O   3.45700931741378     -2.77147062319666     -0.32668208252325
  C   5.60011070470488      2.22501771238148     -0.70804150967790
  C   6.25080333605030      2.66180058959351      0.59909939732705
  O   5.33185347634529      3.05750315784952      1.60482983835447
  C   4.23682661152333      3.79672147225147      1.22966886234176
  N   3.77119379906026      4.68594902006870      1.99195036642172
  C   3.59261736112337      3.41280822432360     -0.07288453399594
  C   4.63777673689503      3.30111186329671     -1.17203361439363
  C   2.83659880136655      2.07683561789115      0.10526552264664
  O   1.65703809254529      2.15470815667732      0.49092403672715
  H   6.65259831407873      0.01202640791103     -1.09272859309951
  H   6.40451480558629      2.08314325258623     -1.43338241938697
  H   6.92825408420019      3.49942028232143      0.38661313616287
  H   6.82845672744548      1.84259848712734      1.02705538315515
  H   4.33874392685312      4.74024166222958      2.83837195068237
  H   2.83325513579620      4.16028681450411     -0.28756052541667
  H   5.17776969049197      4.24011240778833     -1.31980796385498
  H   4.16776271761812      3.01375411723647     -2.11323358947383
