28
Coordinates from ORCA-job 13762optt
  Br  3.16320871554567     -1.07945129285027      2.28270682077486
  C   4.37600069900613     -0.94696294588372      0.84656487188329
  C   5.65173377699603     -1.52452729597052      0.90209520582226
  N   6.29268785880546     -1.51417541335139     -0.36232670255721
  C   6.07671252569017     -0.44441862589663     -1.17761238766719
  N   4.99095951492467      0.22051571813699     -1.19495258711959
  C   3.94321956386397     -0.18434643125060     -0.29569510609314
  O   2.80574960522997      0.21198745510035     -0.50228869674500
  C   7.32799016566772      0.07389262413295     -1.86413906437687
  N   7.47161717869816      1.30104156511213     -2.13368188977555
  N   8.39743893062093     -0.81529013493488     -1.98076140083919
  C   9.64811678734792     -0.55112365465763     -1.27226612793441
  C   9.79872906639154     -1.37217012661445      0.01813759445280
  C   8.78086243800267     -1.05632433273439      1.14445219738037
  C   7.94585214561083     -2.26549437770330      1.65600257345835
  C   6.46694146161049     -1.96267124405344      1.99311253182095
  O   6.08578116710434     -2.10842389320585      3.16788079583366
  H   7.22224874255652     -1.88263161255907     -0.36229081154660
  H   6.59443908097927      1.77365140287696     -1.90954419512036
  H   8.13947258261743     -1.78962721893234     -2.00916544525919
  H   9.66410965332802      0.51817064941402     -1.06029818584449
  H   10.49487246037640     -0.76263461870870     -1.93072870777158
  H   10.82021690221024     -1.22803357665132      0.38025108425993
  H   9.73623972247738     -2.43366197375222     -0.25075674946867
  H   9.31014870260678     -0.62471753168570      1.99393668666987
  H   8.10385504657524     -0.26964210748000      0.80364020082498
  H   8.37117314254150     -2.65670408707376      2.57865992972431
  H   8.00762236261374     -3.08722691882313      0.92906756521340
