28
Coordinates from ORCA-job 13766optt
  Br  2.36769423707969      1.90413170070565      1.60107032254942
  C   3.71321788623913      1.27354762491600      0.41650039086278
  C   4.91059892800830      1.96878196879413      0.23297689914519
  N   5.88297583889839      1.24646646967564     -0.53660482444535
  C   5.37991079690547      0.34118768627599     -1.48591430615860
  N   4.22810826910099     -0.17968534180631     -1.43183054649985
  C   3.36203868888006      0.11125235026354     -0.32716825199439
  O   2.37245991853903     -0.59820958234180     -0.14332468656758
  C   7.25833332348462      1.34180033099296     -0.39238320992391
  O   8.01556297452771      0.88900398755204     -1.23802487949401
  C   7.82184167822183      1.98011088564887      0.86160015076971
  C   8.89386495512155      3.03510630183106      0.56221545712171
  C   8.47584108701385      4.17274706578324     -0.37198633297249
  C   7.14144905242626      4.83888416530170     -0.03008723205014
  N   6.02074874177367      3.99859271365866     -0.40381494381597
  C   5.22892818107719      3.36039504022438      0.55067190474549
  N   4.93083174462845      4.01616010022910      1.61715792426408
  H   6.07950965976079      0.09343247549625     -2.27584221829062
  H   8.30166613013426      1.15569929455146      1.39802699447581
  H   7.05002756193410      2.37569559083780      1.51467893641906
  H   9.75946970130568      2.53333288966337      0.12581903779475
  H   9.21357491475148      3.45758845517840      1.51887159230977
  H   8.41870769966168      3.79037419159372     -1.39715399677779
  H   9.26767409238692      4.92763693124075     -0.37234916399396
  H   7.04897879587951      5.03045776949159      1.04061425884416
  H   7.07466706589482      5.80635335085548     -0.53686566056975
  H   6.15516275018332      3.47825235361767     -1.25516503378662
  H   4.41815532618114      3.41890322976862      2.25631141803908
