22
Coordinates from ORCA-job 13769optt
  Br  3.97587185973451     -1.70017414613067      2.39471477069260
  C   4.79243337557963     -0.87251017875022      0.91759953143446
  C   5.80030828213829      0.08823162558729      1.05275601635916
  N   6.00467522802040      0.87109320131171     -0.15243189977564
  C   6.37908739896607      0.01867732151090     -1.19296841155757
  N   5.51758592933964     -1.03106153551652     -1.35026686191568
  C   4.57177926990730     -1.45674166649909     -0.36934834189229
  O   3.76569708240365     -2.31944206185660     -0.68977115165991
  C   7.53654263485391      0.18500190567339     -1.85619293843224
  O   8.11424368270796     -0.90248496180691     -2.50928851315196
  C   8.59613178096551     -1.90129564367589     -1.73075798721419
  O   8.92789522394307     -2.93791640741786     -2.21587146596642
  S   8.65307973534041     -1.77178969870975      0.08155312345522
  C   8.95874192869346     -0.10739405990385      0.63140805885085
  C   8.19319294003532      0.55960640768017      1.49802737638669
  C   6.84342654158969      0.10646789183031      2.02887945105883
  O   6.78934953126090     -0.24742439393860      3.20897295485331
  H   6.70455771582617      1.58457088349601     -0.00585309526811
  H   5.61010881175252     -1.63973078729264     -2.14752910050614
  H   8.17917465404811      1.03553982394596     -1.70041554177190
  H   9.93653019652122      0.27743942528556      0.36507496256022
  H   8.61158619637212      1.46733705517732      1.92970906346070
