21
Coordinates from ORCA-job 13774optt
  Br  5.59982510162826      1.79581028823630      2.23791614797829
  C   5.86823754970580      0.59612811310059      0.81311310075042
  C   7.07424858640183      0.46309810117477      0.18937466917652
  N   7.23210535438458     -0.41298817583554     -0.86525304427748
  C   6.44114285966717     -1.41552396084408     -0.91483407122285
  N   5.23908059198447     -1.42212682796832     -0.28042158373583
  C   4.81466747514795     -0.36541825644633      0.55220378063219
  O   3.69682887145938     -0.39812945227075      1.03107036595080
  N   6.89445327096076     -2.56281203718165     -1.59573317662331
  C   7.99040540545942     -3.00433072763634     -1.09829762125961
  O   8.42852102159396     -2.71040193493363      0.11108689581504
  C   9.82198413259895     -2.30843886701024      0.51126563992689
  C   9.86794517719033     -0.85909300651533      0.88070912447650
  N   8.74973724173415     -0.37011670163288      1.43080145627031
  C   8.46868737225054      0.69884708585607      0.65188687472065
  N   9.39835874687329      1.07642970915586     -0.20581402909271
  O   10.39554132952228      0.03602884947825     -0.02880108764065
  H   4.63236319505742     -2.22679882827350     -0.32594030301182
  H   8.56608957412730     -3.73932405754476     -1.66553191381920
  H   10.50920739531563     -2.52231200093405     -0.30833962190811
  H   10.01256974693638     -2.96152731197443      1.35853839689396
