22
Coordinates from ORCA-job 13778optt
  Br  0.83491490655073     -0.27911648002835     -0.26635218194001
  C   2.71333146494093     -0.15003390960669     -0.19092801208112
  C   3.53232778976309     -1.26241192427364      0.01223399966646
  N   3.15436119844438     -2.56044835720974      0.06630441296280
  C   4.32371841821625     -3.19370084433326      0.24485893991526
  N   5.43156473626717     -2.44576728017197      0.29548389874113
  C   4.96070538504916     -1.18760733431134      0.14409986264714
  C   5.70335996964773      0.04871729990185      0.08344439262198
  C   5.01688530892612      1.23418831565060      0.12203912560635
  N   5.65904995671419      2.46231416410316      0.12705824902623
  C   7.00363717528261      2.55726733221905      0.15401675390069
  C   7.78025555211359      1.44821990014663      0.09452248223193
  C   9.19558954815430      1.59002582329528      0.10680149428696
  C   10.39594112325852      1.66482025668933      0.10989792052258
  C   7.18362278296511      0.09794644819928     -0.05383998550444
  N   7.87005206190351     -0.95104392098489     -0.29714327004096
  S   3.28129603732515      1.43969113954525      0.24544180599044
  H   4.36855192160072     -4.27035864980316      0.35024988891790
  H   5.09683887350589      3.29579730404838      0.10331102959079
  H   7.41896015125979      3.55354762425337      0.21265228667740
  H   11.45622796298955      1.73303009736345      0.11371256659375
  H   8.85880767512129     -0.70707700469261     -0.35486566033329
