20
Coordinates from ORCA-job 13775opt
  Br  3.75018784036660     -1.31129844414749      2.99330769167873
  C   4.66515611481415     -1.14415434849911      1.36077060028276
  C   6.07069720717883     -0.95438837793083      1.36319061326183
  N   6.71068148019434     -1.06724311538252      0.08419263357658
  C   6.02750001504198     -0.97489233141556     -1.04350422364970
  N   4.69525648687872     -0.86370414268706     -0.99134844377867
  C   3.89444476871360     -1.08179713277575      0.19459085560091
  O   2.68497032488482     -1.15434648715163      0.01376688809705
  N   6.67818566516379     -0.98363391402736     -2.20426336901345
  C   8.10881871784563     -1.33471417525020     -2.32382139141042
  O   8.48158787684406     -1.42080187559894     -3.48775102998291
  N   8.75185799598958     -1.54263352970631     -1.21122559027604
  C   8.16593766384393     -1.37668905999748      0.04176999408933
  S   8.99810300011663     -0.03536984498568      1.02707529610494
  C   8.03592052667284     -0.32014959155194      2.45634378640075
  N   6.77627361413378     -0.70439463465730      2.44522002337957
  H   4.16145955588018     -0.82412594633013     -1.84613777530889
  H   6.16793799560820     -1.02282873040642     -3.07220041493124
  H   8.28764928587838     -2.26179281542676      0.67139239726370
  H   8.50537386394948     -0.13704150207149      3.41363145861517
