20
Coordinates from ORCA-job 13782optt
  Br  2.27232384863848     -1.11931936844606     -1.66804959469684
  C   3.84963077618494     -0.70366491734744     -0.76308744943221
  C   4.16099742520238      0.61133915238429     -0.41180333894817
  N   3.42021797303901      1.73521657574264     -0.66095549901328
  C   4.15491016898334      2.68977588785467     -0.12766654076182
  N   5.33371750044107      2.33494498857242      0.46587310600309
  C   5.36229101563718      1.02235808490366      0.30014182308230
  C   6.27687022330806     -0.02683800914287      0.65495669342830
  N   7.45785711907263     -0.19643143022562      1.28013275551802
  N   7.68141739913202     -1.55042797995887      1.20839737953498
  C   6.70861662104314     -2.25110801230368      0.57468684825299
  C   5.82450366620750     -1.26025893728477      0.23229702141775
  N   4.71514883922657     -1.67066111713705     -0.42892752975106
  C   4.87027607579199     -3.13436434869278     -0.54900858887474
  N   3.99834532796707     -3.86312748910979     -1.12009563687088
  C   6.16488763794328     -3.51263411775228      0.09813134152126
  O   6.57943945701105     -4.68971957469246      0.15807952064385
  H   3.84381327050806      3.72587867934296     -0.15377992399274
  H   8.52435659661975     -1.90666528774244      1.62137941783333
  H   4.35037905804241     -4.82129277896453     -1.06370180489413
