21
Coordinates from ORCA-job 13787optt
  Br  1.50638976603030      0.19206098132822     -0.32279384249801
  C   3.38063544579203      0.09435635502588     -0.05154008170732
  C   3.97584632197856     -1.15104118779764      0.07228302174972
  N   3.46231409825436     -2.39884580338438      0.03802209636354
  C   4.55782472567693     -3.16192238173527      0.23111664773995
  N   5.73528894139419     -2.56081656160470      0.38955759928199
  C   5.40194247039341     -1.24113814920290      0.29104901662632
  C   6.18837206500490     -0.10881164565591      0.37462506417983
  C   5.59089320352803      1.14546138734741      0.24662290729158
  C   6.29319933810058      2.38152921143093      0.33020750032596
  Br  8.17383224072364      2.32550649712426      0.62264403095516
  C   5.68939916157436      3.59695371870622      0.21425647024557
  O   4.34857405332486      3.68212245905355     -0.02565615313466
  C   3.61285195709793      2.53983784076376     -0.11032440609583
  C   4.15398704146184      1.27509032585611      0.02122672041055
  C   6.32444204310187      4.90041259030997      0.33890193794031
  O   5.72347677212646      5.95069014992473      0.24896704928415
  H   4.47561861064893     -4.24219757823410      0.25717305810565
  H   7.25184610861933     -0.19879479044949      0.54453202587010
  H   2.57203720988058      2.74126057896549     -0.29397291677429
  H   7.40522842528686      4.87828600222782      0.53210225383972
