21
Coordinates from ORCA-job 13784optt
  Br  1.12545789395520     -0.06572454235262     -0.24239818626850
  C   3.01236271903184     -0.02046049346302     -0.09192538755831
  C   3.73001852601422      1.17107620271572     -0.00816103464470
  N   3.31835397649709      2.47717221852652      0.02848859841311
  C   4.46145436066516      3.24154623508051      0.07926966599297
  N   5.54623025116312      2.53892883784553      0.08483411009415
  C   5.14069793798738      1.20980757290635      0.03032534609198
  C   5.92597181424230      0.04129129981995     -0.00824841393362
  Br  7.60507212489472      0.04321593554232     -1.69113001049089
  C   5.17990968531159     -1.11817933577104      0.00236812944293
  C   3.77505468043723     -1.16290369953336     -0.08327708062656
  N   3.39593555133297     -2.49174999025027     -0.20078737005268
  C   4.48926971955644     -3.32297134961670     -0.20019913768332
  O   4.48355961624246     -4.53306469585646     -0.27535490976131
  N   5.59779625743281     -2.47892060635533     -0.05631828786272
  C   6.83293395318812     -3.02620869086723      0.27448293333354
  O   7.74967236936745     -2.42610433198260      0.75240961613473
  H   2.36729759071877      2.79960888827243     -0.00322105959030
  H   4.40922625534681      4.31941577412401      0.11241332536011
  H   2.45702166423201     -2.83664600548382     -0.30039519368746
  H   6.84070305238220     -4.10412922330090      0.06282434729685
