24
Coordinates from ORCA-job 13789optt
  Br  1.07643926429804     -0.03524941846264     -0.21571153072708
  C   2.94886649089996     -0.07552750431214     -0.07938441637771
  C   3.69135588043016     -1.19942571101385     -0.04616389876048
  N   3.37404755490651     -2.53246895588800     -0.06626654198254
  C   4.57986615715506     -3.09068206336643     -0.02136417525624
  N   5.67340418991908     -2.30361496404513      0.01837077065065
  C   5.13965325061964     -1.05564389932618      0.00542415724939
  C   5.72985204037408      0.19646824260097      0.02692146640622
  C   7.22725128980359      0.35360626960282      0.02668539898320
  C   7.89709112073869     -0.22799528939073      1.28623525806573
  O   9.08717081705720     -0.81725129621874      0.79003410274425
  C   8.70553759537915     -1.33324241422686     -0.46193545714622
  O   7.84606529455197     -0.38399395202128     -1.03771943093901
  C   4.88040640842382      1.32051894801187      0.05430005715769
  O   3.49522359343347      1.14324940237334     -0.02979852556380
  C   5.20231718617738      2.69715330744106      0.18497798347593
  O   6.32893076000957      3.19485174028567      0.34907545673150
  H   4.68470631889022     -4.16971089774075     -0.01384334933979
  H   7.48378066484116      1.40043382922817     -0.10063387476199
  H   7.25819292119508     -0.98818118417615      1.74378975269923
  H   8.15798016234357      0.54148753356667      2.00946611189119
  H   8.17700940952728     -2.28433661335370     -0.33880204217561
  H   9.59577999086564     -1.43378938798242     -1.08383703002646
  H   4.30907163815959      3.34534427841443      0.13917975700198
