22
Coordinates from ORCA-job 13795optt
  Br  1.22228858351835     -0.49801204460824     -1.00944286235006
  C   2.98129704063096     -0.29150628004505     -0.39843144498711
  C   3.77851069640324     -1.40312530569275     -0.22876950073236
  N   3.50001903970294     -2.73082813924479     -0.35093344315463
  C   4.68798637908181     -3.28066725167690     -0.11159262213697
  N   5.73443495504389     -2.46463218798762      0.14616869294429
  C   5.16913142458390     -1.24795086261563      0.07545677210377
  C   5.69426375009030      0.04695797933233      0.19929941641031
  C   4.84654065708499      1.10364230595368      0.07340576474571
  N   3.50023794829647      0.95301372815527     -0.19638225922012
  C   2.70761994959747      2.11847834382659     -0.19705734163439
  C   3.04014320416394      3.38507729309677     -0.69770161920145
  O   1.99400129383429      4.20590715328400     -0.28692857635973
  C   1.15878041778364      3.40512441766353      0.41190513333561
  N   1.53207118616078      2.18082922593559      0.50701409089906
  C   4.08376964769138      3.94826563999990     -1.45521631345834
  O   5.08194044467102      3.32153347944591     -1.88313209117088
  H   4.81639419185033     -4.35591549593531     -0.12395446361953
  H   6.74227012973279      0.22673927586112      0.39211863758624
  H   5.16392533370856      2.12976188977687      0.15214488869638
  H   0.27322200711216      3.85627316645438      0.82688936172923
  H   3.95715171925673      5.02603366902034     -1.65386022042502
