26
Coordinates from ORCA-job 13791optt
  Br  2.20319020800872     -1.16496914459777      2.72545337179278
  C   3.52792025761542      0.09368739876189      0.87344685870260
  C   3.83633408405180      1.29181007921830      0.24699922997003
  N   3.24974494865867      2.52067564227774      0.30224917589940
  C   4.01005099621986      3.22078241993494     -0.52815296006893
  N   5.04871235697653      2.60280794768156     -1.14532661785652
  C   4.94980823157774      1.36134645270564     -0.65613138484936
  C   5.74295869413125      0.21750150788675     -0.89996608798898
  C   5.40587674391720     -0.93587029081890     -0.26090237291505
  C   6.17710722314962     -2.21693721520813     -0.34840580135712
  C   6.96286537804285     -2.50182896066318      0.93853574663200
  N   7.78517409055334     -3.69194948162184      0.85627970372340
  C   7.31219148904203     -4.93861349089353      1.15502328270030
  N   7.82929323447276     -6.07045416146855      0.89492314951047
  N   4.32046865947162     -0.94113706598829      0.58403408372254
  C   3.74557168575949      4.61569626178981     -0.77951543782827
  N   3.54162010744060      5.72548734739449     -0.98818417819315
  H   6.59361007369951      0.25079967410262     -1.56768464379135
  H   6.87408556011454     -2.15076805849434     -1.18581067209167
  H   5.50794453206466     -3.05974766231088     -0.54919149854553
  H   6.27828686983984     -2.62289175581924      1.78044364541241
  H   7.59612164986386     -1.64459301254845      1.17266111734116
  H   8.58058183816062     -3.65052898601934      0.23641488258031
  H   6.37938203446529     -4.91067024449312      1.72085333504944
  H   8.69343101703707     -5.97077933999476      0.36047289153155
  H   4.06566803566476     -1.79985586081334      1.06648118091752
