24
Coordinates from ORCA-job 13799optt
  Br  1.39026384221180     -0.98112092353915      1.48681018107101
  C   2.78804734295607     -0.30651508087485      0.32063489137446
  C   3.74121802038561     -1.18916243692057     -0.24113958414012
  N   3.61774933572095     -2.44664097621440     -0.74130260735012
  C   4.84164977915032     -2.69142511819830     -1.22017125829499
  N   5.76366715829066     -1.71508058900608     -1.08120297335882
  C   5.05887446831467     -0.75201760212953     -0.44134645664762
  C   5.48397580447002      0.52999171881158      0.03385288308672
  C   6.92104592371991      0.94331794017105     -0.07064693930986
  N   7.43955812463410      0.60786381438698     -1.38892323309281
  C   8.24719116508251      1.41886624290838     -2.06015250258429
  O   8.66930252021788      2.50050242476025     -1.72236256996427
  O   8.57183100043336      0.84218663460488     -3.28505251181627
  C   9.41314694287483      1.52696205550833     -4.10244311547996
  N   9.76296350067587      1.10199017540771     -5.23061590682094
  C   4.54803936969470      1.28920268875020      0.62197823031066
  O   3.24913850881728      0.91336928798120      0.77507069184754
  H   5.08584704835084     -3.63001074277603     -1.69972753804901
  H   7.51114990349850      0.41313146461847      0.68381349642683
  H   7.04807766219192      2.01320645110473      0.08554285121254
  H   7.16711799160080     -0.30264009594607     -1.75893626171811
  H   9.75929071377406      2.47128956391844     -3.69697889106878
  H   9.32503387676802      0.20003566805774     -5.42318548266251
  H   4.72481999616495      2.27069743461503      1.03948460702879
