22
Coordinates from ORCA-job 13804optt
  Br  1.23833211298979      0.13733761451505     -0.37647130101555
  C   3.04367252700751     -0.07547450545415      0.20732822696284
  C   3.74868032218722     -1.27797771952956      0.01022469406326
  N   3.32348068485267     -2.54931545999927     -0.06863423736903
  C   4.47860220565316     -3.24068352595491     -0.15776127795726
  N   5.62556112048496     -2.50856406558128     -0.14842152777675
  C   5.16854290371531     -1.25977332115211     -0.05256807581904
  C   5.84919588587557      0.00165896478226     -0.05408220904714
  C   5.09657878773996      1.10939606771230      0.01982227025773
  O   3.74138803917689      1.11406978182309      0.12270566567231
  C   4.50977357006688     -4.69616468444796     -0.17241119872978
  N   5.57643823576806     -5.27909070026645      0.30168661033882
  N   5.61916270400825     -6.61220228996205      0.34010275119711
  N   4.61837210975954     -7.44869848695423      0.13862439467862
  C   3.53552534955593     -6.92829289279943     -0.33481539401046
  C   3.39537824369196     -5.52130544612555     -0.69762926507971
  N   2.45012941923896     -5.05798293583591     -1.42051840673585
  H   6.92406689027621      0.08403658527204     -0.13401097843091
  H   5.48316505655504      2.11798493715971      0.00289748885752
  H   6.42904504748041     -6.99798875315171      0.79037511555800
  H   2.71200481284867     -7.61091150246665     -0.51694311409141
  H   1.81790397106678     -5.81805766158304     -1.67950023152330
