24
Coordinates from ORCA-job 13802optt
  Br  1.68352569777980     -0.18458209473312      1.55266628696656
  C   3.35041411899984     -0.30580856817330      0.68878938906241
  C   3.89222359872168     -1.45439861211009      0.26792516577000
  N   3.52458715836903     -2.77371084027414      0.27703911808718
  C   4.56795995317001     -3.48856307108776     -0.29518265027025
  N   5.56990065752203     -2.68280651599750     -0.69311274197803
  C   5.20152795870830     -1.42832780452868     -0.36956906336995
  C   5.83430094282026     -0.21126082798632     -0.53150682159247
  C   5.21839365315675      0.99466525149351     -0.07757381514460
  N   5.63750103789658      2.20528579323045     -0.13745795718249
  O   3.96651550330331      0.88842671902118      0.53618235938914
  C   4.51660162487393     -4.90816609401745     -0.40128599542858
  O   3.57240826616226     -5.59107717101390      0.02026053071072
  N   5.61028486140418     -5.47923729485925     -1.05181808142059
  C   5.90262369205885     -6.86897466625760     -0.80337570026568
  C   6.79060657736475     -7.09721342482649      0.34853015411762
  C   7.53340626635479     -7.24947078641373      1.27684088648178
  H   2.71316819685085     -3.19653858103665      0.69197502594981
  H   6.80540446225142     -0.13931373834225     -0.99810222016719
  H   6.54537572453150      2.20700261174244     -0.59170633497968
  H   6.39208992889516     -4.84550035324452     -1.15206511865261
  H   6.35541256928579     -7.32112045295133     -1.68838342053207
  H   4.94744910414853     -7.36321880647314     -0.62181206928287
  H   8.18231844537017     -7.37109067116022      2.10974307373183
