20
Coordinates from ORCA-job 13817opt
  Br  1.16623421151842      0.09753633833006     -1.17173122597316
  C   2.86145335973755      0.19864789761741      0.17430913867288
  C   3.72422744135478      1.31488766802648      0.10796010853479
  N   3.43880028064677      2.63822498811285      0.09525874618564
  C   4.65506877325718      3.18555433164986      0.07250356084276
  N   5.72678424621320      2.36089215445039      0.07044319825840
  C   5.13591050322085      1.15960331531505      0.08983503095257
  C   5.70588941079569     -0.14536828412520      0.08779890938385
  O   7.08959312475806     -0.18717322549742      0.01568270151407
  C   7.80010269655466     -1.30488174832713      0.04532570063982
  O   7.38698247337945     -2.42706976172802      0.15764646724028
  C   9.22017935326643     -0.99541877931879     -0.08559823267621
  C   10.39207559425011     -0.78533240089562     -0.19765220301646
  C   4.86835928597514     -1.21163695363648      0.14041413506725
  N   3.50966574081480     -0.99773444184038      0.20428617834571
  C   4.83353231689196      4.61235766140163      0.05538933181585
  N   4.98510405672192      5.75082372919471      0.04546872093085
  H   11.43254993299114     -0.58845956305278     -0.29870294892377
  H   5.19420250894080     -2.23541813542437      0.15144580878172
  H   2.92428468871063     -1.81803479025230      0.23891687342315
