26
Coordinates from ORCA-job 13814opt
  Br  3.59593960924440      0.51299554869679     -2.36783535524330
  C   2.89474530134089     -0.36484419297191     -0.78340686992404
  C   3.49553217705913     -1.54852918338518     -0.32039254939165
  N   4.05647828790968     -2.60323844811542     -0.95266264107834
  C   4.42648043044329     -3.39172143553956      0.07425475254338
  N   4.17027595285336     -2.94514289745940      1.31188344010679
  C   3.56700088586030     -1.75278865616062      1.06542700073379
  C   3.21300251808520     -0.68313626363707      1.92162834864291
  N   2.68977357307923      0.42566216256702      1.52122877548247
  O   2.39578292579025      0.50691866978656      0.13367935807448
  C   5.15338223580510     -4.70355102464585     -0.12725055186970
  N   4.85635997093705     -5.66874060636992      0.93472086710073
  C   3.53035657399197     -6.18082075336983      0.58854803965692
  C   3.65995346468841     -6.47624506203101     -0.90609313901805
  C   4.68507179606640     -5.42312011452998     -1.41733580893101
  C   5.78238502772574     -6.04760304385464     -2.14966495712123
  C   6.67699073726262     -6.57478272587043     -2.75167720877806
  H   3.41377672102500     -0.71214362596929      2.98816689760787
  H   6.22780737378811     -4.51227151907349     -0.16185963083432
  H   4.81573434734316     -5.15817818245207      1.81251178204966
  H   2.74595982463362     -5.43188874284704      0.75965477093645
  H   3.29372247657927     -7.07148499471197      1.17239430906736
  H   2.70902900821342     -6.40191738419428     -1.43145168345371
  H   4.06154560895315     -7.47740950609046     -1.05819153494820
  H   4.21459942942402     -4.68244042656132     -2.06435210233139
  H   7.47431374189669     -7.03257759120905     -3.28392430907983
