24
Coordinates from ORCA-job 13811optt
  Br  0.55638695880175     -0.66957951208279     -0.31258256019503
  C   2.99401935731076      0.24725907506466     -0.26352575109469
  C   3.83762565345819      1.34415678161265     -0.10034775640893
  N   3.61044496907075      2.66704404418496      0.09406967196423
  C   4.84823410627774      3.15635670496355      0.17092358339291
  N   5.88273757585123      2.29655871751760      0.04803493195442
  C   5.24677125430012      1.12879152658551     -0.13037906174407
  C   5.73603170255886     -0.18811299042144     -0.31137836545062
  N   7.11171794998323     -0.41990154332389     -0.37893433831741
  C   7.62079327145682     -1.40265863343334      0.23244807978553
  C   7.00629005325696     -2.40748281219823      1.17995315441937
  C   8.19347188294158     -3.09894174898934      1.81168728211821
  O   8.17362833316093     -3.93476773057915      2.66953403792311
  C   9.46770672007251     -2.55612682795257      1.16851930208821
  N   8.96530482029496     -1.69859720087925      0.12175496439882
  N   4.91443002565728     -1.20045897062684     -0.45928438871739
  N   3.59610282205684     -0.91694630325170     -0.42934638588554
  H   5.02380502110662      4.21317777590308      0.32769935566263
  H   6.39108654168536     -3.12887067326921      0.64087296912218
  H   6.35998077275815     -1.93771498268308      1.92177411340483
  H   10.07619253656685     -3.38213714970265      0.79566239843886
  H   10.04069089237281     -2.02412172731603      1.93646232265467
  H   9.54228751452625     -0.99391265129231     -0.30977678246122
  H   2.99425926447310     -1.72301316783013     -0.55184077705312
