23
Coordinates from ORCA-job 13815optt
  Br  0.94018781772188     -0.52478538736146      0.21003130451190
  C   2.79501066246596     -0.21632459071031      0.11069914606909
  C   3.72780423083967     -1.25623286405650      0.06218300842141
  N   3.50438941277256     -2.59321320519008      0.11790506566645
  C   4.74978233685851     -3.10240763545306      0.07535410585530
  N   5.76910156817147     -2.24269147226151      0.00273712272789
  C   5.13466900503688     -1.04162081912674     -0.01271848664978
  C   5.70516360598145      0.26087792790446     -0.06173257805052
  O   7.08296054461935      0.30400618705183     -0.11293823857674
  C   7.71279437105667      1.36037188147720      0.52080075459060
  C   9.22048405240006      1.10724903147424      0.74283069687641
  N   9.47159931561543      2.43453616082579      0.15566474130016
  C   8.16853013918738      2.57044819854083     -0.31363633397625
  N   7.57772096168258      3.34334053669552     -1.11280298469265
  C   4.97276498210834      1.39776495104615     -0.06952967482630
  S   3.23151175873716      1.46330417602734     -0.00274542723397
  H   4.91726940673264     -4.17232990490088      0.09857918769439
  H   7.17238953104255      1.66594094249734      1.42073405472304
  H   9.55632227688844      0.27143548778900      0.12928135638281
  H   9.56270354879352      1.00007005667053      1.77047279914268
  H   10.29652315103512      2.69828406147687     -0.36228266306457
  H   8.21894897037897      4.01577470455509     -1.53292620988616
  H   5.43436834987326      2.36720157502833     -0.20396074700518
