22
Coordinates from ORCA-job 13823optt
  Br  1.43242095241685      0.16840850628541     -0.52188226176222
  C   3.29398694195154      0.06118207493079     -0.20485895519259
  C   3.90445090596668     -1.19526147632207     -0.08508146721388
  N   3.44442243017095     -2.47146126470622     -0.15327151725321
  C   4.55233734358951     -3.18581034339130      0.05677333103333
  N   5.70932210678451     -2.50752110397446      0.26022482160598
  C   5.29015428095000     -1.24546173726906      0.16655563219203
  N   6.01986117449843     -0.10024990980908      0.28480004352901
  C   5.44294970733817      1.13209809080749      0.16123777223396
  C   4.04676249368055      1.21760503791446     -0.09134841457068
  N   3.50021619667062      2.48416121937303     -0.21365721606610
  C   4.18485786641513      3.70152799824423     -0.13501879689132
  N   3.59573417560182      4.84404554057270     -0.29046361325239
  C   5.57867188730468      3.58554485946267      0.13218017337281
  C   6.18148009755825      2.32774636252079      0.27635317334955
  C   7.57039266873109      2.20650288510598      0.55047817614293
  N   8.68964621632715      2.04014656628666      0.77377879374075
  H   4.53565386468046     -4.26709391492243      0.06545985162687
  H   7.01245362980024     -0.16208150479100      0.47083278423109
  H   2.51287564913056      2.52667061944165     -0.41178889869087
  H   2.60237174646406      4.71933346233008     -0.47464415574356
  H   6.15297766396870      4.49396803190966      0.21234074357848
