22
Coordinates from ORCA-job 13826optt
  Br  0.98890692318821      0.46154688595919     -1.24933179455439
  C   2.77919323879818      0.33638479480393     -0.64283355864863
  C   3.27551572867667     -0.89402803615995     -0.29695127038948
  N   2.73913436196082     -2.14889253569241     -0.27908894957501
  C   3.75121421029757     -2.86780719114382      0.19504791690017
  N   4.91199834801905     -2.23737308802914      0.49728119748825
  C   4.63003050598758     -0.96711685268984      0.18724294588833
  N   5.45291846971399      0.09875632112656      0.26352851869316
  C   4.93510028661350      1.23429643895134     -0.07565574060971
  O   5.85807120017450      2.27899831976207     -0.17460577210064
  C   5.81787129219699      3.30791613605229      0.70217039843474
  N   6.80902212926929      3.67185627033878      1.39904448620596
  N   4.63370743337061      4.00588646948541      0.74554561781992
  C   3.60133148846038      4.02052681813515     -0.21732368377659
  N   2.98084781603829      5.11969503270864     -0.50544319034877
  C   3.12747280769813      2.79312110487561     -0.77123189639533
  C   3.59232461149324      1.49044848720774     -0.50284006421109
  H   3.65408188321785     -3.93704053189845      0.33788225602949
  H   7.56408976213485      3.00489252670724      1.27213678894863
  H   4.71126376273645      4.83763337847095      1.31075153873565
  H   3.40921075230790      5.91359020403178     -0.03237081614954
  H   2.22569298764588      2.91170904699690     -1.35295492838510
