26
Coordinates from ORCA-job 13828optt
  Br  1.15502472907295      0.19359473154071      0.24184014627829
  C   3.05688339304709      0.11663703806750      0.18586714851236
  C   3.69862171653178     -1.14875469875037      0.10511685862952
  N   3.24661624821443     -2.42921429981758      0.17878494182456
  C   4.36091043201387     -3.14859521513090      0.00716048193324
  N   5.51631108128286     -2.46019468261291     -0.17029165437216
  C   5.08484347112019     -1.19799541073474     -0.10564460152984
  N   5.84925929213749     -0.04662099506407     -0.19961468142059
  C   5.19372903003432      1.17604010638696     -0.21098938812830
  C   3.83762451348636      1.27599626516580     -0.01071321657888
  C   3.23629672835230      2.65468595822587      0.04373229576956
  C   2.83874121362675      3.04025346532439      1.44394935101865
  O   3.95863489598813      3.20635920336682      2.27982392048393
  C   3.52479397246551      4.07041244903621      3.29656051882899
  C   2.50765753674512      4.95294222520142      2.59446384275968
  N   1.99467389440065      6.05510652942677      2.92590533132758
  O   2.19440651106096      4.33256105606722      1.44948346531624
  H   4.34827076889415     -4.23042353194613      0.00535973281632
  H   6.78850185775225     -0.12457435139239     -0.54941744477137
  H   5.81537105648748      2.05507640517092     -0.29759889134057
  H   2.33541906410886      2.70808722844508     -0.57084219728403
  H   3.94744017880160      3.39902545832718     -0.31778570420567
  H   2.14048701470094      2.31961821508454      1.88233116862092
  H   4.36789954321898      4.63632791985415      3.68771416595130
  H   3.03557701191887      3.52371370143302      4.11376481928508
  H   2.38400484453599      6.35993522932447      3.81403959027514
