21
Coordinates from ORCA-job 13839optt
  Br  1.11535897407418     -0.07767920167169     -0.10806178802433
  C   2.98871700396454      0.05774563146983     -0.07257719723292
  C   3.67461355167560      1.21976087295343     -0.06579940604807
  N   3.32854509438969      2.54031107667763     -0.07600615268601
  C   4.52301389407478      3.11723377024232     -0.06442350966813
  N   5.63641075844405      2.34209674423139     -0.04852122327319
  C   5.13092018914544      1.10433331080706     -0.04805792242648
  N   5.79159619468494     -0.04980808158065     -0.03482621896086
  C   5.07173191088644     -1.16554061449588     -0.03729361793346
  N   3.68388993486756     -1.10884170350157     -0.05550839605340
  C   5.67467887097794     -2.45875649240670     -0.02354318931441
  C   7.05916749294345     -2.60143963107202     -0.04209772314091
  N   7.75126563186852     -3.72859186038780     -0.05168402098121
  C   7.17484023697706     -4.93540620880123     -0.04901212543680
  C   5.79919479624203     -5.26952307477096     -0.02679626339131
  O   5.29736884481389     -6.38078313279600     -0.02533145307456
  S   4.62917139478297     -3.86993067349045      0.01537568908830
  H   4.61313419264495      4.19680038522592     -0.06812093109115
  H   3.16900665646834     -1.97889277431805     -0.07412813361907
  H   7.63339849222735     -1.68192555446281     -0.05407706715402
  H   7.83497588384623     -5.79716278785175     -0.06550934957802
