20
Coordinates from ORCA-job 13835opt
  Br  1.93176263915550     -0.62223763953648     -1.85286978541868
  C   2.91171568776944     -0.26664105559692     -0.12337268609609
  C   3.55021879600040      0.97552684762895     -0.07482223133456
  N   4.95481952718467      1.03807669081082      0.04483126996864
  C   5.29927899124659      2.36145888249437     -0.10868934474509
  N   4.29945577391945      3.15402687961337     -0.24336034946944
  C   3.13805421759562      2.35186291272387     -0.18668359136044
  N   1.96625125065446      2.91759306144509     -0.14616425959081
  C   0.86010552962720      2.05548545442967      0.12069530020675
  C   0.90114343474155      1.34147195223765      1.49672076316759
  O   1.63622745371199      1.63694046612688      2.38699941335380
  C   -0.41184586197372      2.80824073416300      0.12072922328069
  N   -1.43246374198405      3.33042268395788      0.15078971808376
  C   5.79562577354560     -0.04879504544080     -0.13038240851531
  N   5.46992038115883     -1.26890372379090     -0.03360320428689
  S   3.84786015673231     -1.60390627376944      0.44984559282329
  H   6.34040837020782      2.65753637972981     -0.10068209952267
  H   0.71400703179731      1.25249600033888     -0.61414439218037
  H   0.14740374963919      0.53700763794715      1.60015089577382
  H   6.82305083926967      0.21833715448707     -0.37298782413799
