25
Coordinates from ORCA-job 13837optt
  Br  0.83836511437554      0.06164865800134     -0.52485365451656
  C   2.72355839235347      0.10558645285946     -0.33664696096026
  C   3.38871407786838      1.30521770159729     -0.10227463511695
  N   4.76696222528267      1.27486635312195      0.18456658163898
  C   5.20012559534891      2.57531125391992      0.20591565932817
  N   4.26447142858734      3.43798742994801      0.00686783472894
  C   3.06489313614231      2.70369360186446     -0.20894367798931
  N   1.90232574406869      3.23585291992359     -0.46568094975936
  C   5.56880748354007      0.14929107745100      0.17010504742110
  C   5.07230685176039     -1.09007710454779      0.23651543460918
  S   3.34019505542824     -1.38190019704456      0.43592432959800
  C   5.87690547395919     -2.34271824160366      0.07670849402980
  C   5.79689193446252     -2.90008082258595     -1.36935028300022
  C   6.61573186661980     -2.12112540790070     -2.29168268436027
  C   7.31854139625940     -1.46019754468723     -3.00277834936649
  C   7.32848927382225     -2.31635149333553      0.49641326464215
  O   7.89615430167552     -1.45757296895039      1.10847927564169
  H   6.24236049472130      2.79496111062252      0.39672919217506
  H   2.02940986859704      4.24639931379528     -0.46291781694122
  H   6.63147326988308      0.33425297719720      0.09315143647970
  H   5.43328513004406     -3.12123613514920      0.71666933944885
  H   4.74959671711712     -2.87267048990309     -1.67601753613120
  H   6.12429335459516     -3.94313029684638     -1.39086681140485
  H   7.92133228565994     -0.85808357910613     -3.63829224596411
  H   7.87880952782742     -3.23392456864141      0.19325971576918
