19
Coordinates from ORCA-job 13830optt
  Br  1.05391390212254      0.01636517065848      0.20238581882069
  C   2.89973248375801      0.23855569570522      0.49182731351634
  C   3.59468548992773      1.31922855887955      0.10635236492020
  N   5.00937695291567      1.31627808256886      0.20043603176549
  C   5.42032604392612      2.66183889532528     -0.04412418014981
  N   4.38453367538060      3.42718208133931     -0.37061438392670
  C   3.24353185987271      2.67723142502635     -0.36807878282865
  N   2.03245196144797      3.04184432514932     -0.66017302375715
  C   6.71485080155274      3.10169192315942      0.23780985561503
  C   7.83391032995160      3.48831783048094      0.48990415540474
  C   5.68425213649420      0.15773107430113     -0.09668144608092
  Br  7.19190665819476      0.27287185241469     -1.23775690084935
  C   5.20662965824511     -1.05666734562627      0.25873405072254
  S   3.76080550223476     -1.07640149564990      1.29324051956773
  C   5.72956435526143     -2.29466112777584     -0.17887062669218
  C   6.15182910687729     -3.37818254879004     -0.48612154262145
  H   2.06620205879289      4.02929635548821     -0.91126820376117
  H   8.81959117649452      3.82301768566610      0.69919251215945
  H   6.52790584654928     -4.32953843832082     -0.77219353182481
