23
Coordinates from ORCA-job 13834optt
  Br  0.72013674057440      0.58229701012698     -0.81856412741024
  C   2.58222831372712      0.27044168291544     -0.61905758074691
  C   3.40367195955201      1.25165974747146     -0.06850680767058
  N   4.73164780351766      0.93428515502650      0.26416853804056
  C   5.35179883920464      2.10159474552281      0.61505616257040
  N   4.57487984134560      3.13108687827202      0.58304689964577
  C   3.30248513796821      2.67342941454355      0.14867480934953
  N   2.25400361468435      3.43085451113682     -0.02221961604304
  C   5.33774455127712     -0.29388566034021      0.05801767044887
  C   4.63336138421558     -1.39638903471494     -0.19444731984806
  O   5.30840357973701     -2.56543533089300     -0.50233531564689
  C   5.06554600636187     -3.61771318617880      0.32132150125921
  C   5.26753943521823     -4.93583933628748     -0.00401764308105
  N   4.95311453630529     -5.63417278863989      1.11490187166027
  N   4.55275397890234     -4.86328373871692      2.12384507345108
  C   4.61719426049518     -3.62507961112938      1.65899170407011
  S   2.87325081384454     -1.45708375052735     -0.22124511057222
  H   6.39643945973526      2.09834373495179      0.89755161663815
  H   2.52854694550692      4.37950634843376      0.22683459583379
  H   6.41942521102266     -0.31449786886116      0.06767003901902
  H   5.59627131556849     -5.40202358020262     -0.91578821083971
  H   4.97068190011558     -6.62999801805664      1.23683732239814
  H   4.32587437111984     -2.78309732385271      2.26526392747379
