28
Coordinates from ORCA-job 13838optt
  Br  2.67633202651437      0.07169201110144     -2.69255087297330
  C   3.56628046591401     -0.00258721768700     -1.01188430108455
  C   4.02782283534040     -1.23469442890029     -0.47700530565825
  N   4.03530163441584     -2.52768951426942     -0.89797594080631
  C   4.67271137664913     -3.16210385010436      0.09252948077663
  N   5.08281414649090     -2.39905179603099      1.14038188194082
  C   4.66846465376690     -1.18843731874401      0.76508095005312
  N   4.79626181903835      0.01227804727534      1.45698288453442
  C   4.40178278564985      1.16227046337418      0.77150936547575
  N   3.79404933768020      1.14616269003032     -0.37961591599788
  C   4.83709503220252     -4.64108583195654      0.07881843458037
  C   5.98012634479941     -5.21681989064446      0.92477456425981
  N   5.64355196244050     -6.67082574066740      1.02814731583207
  C   4.36150000153195     -6.79180727761586      0.29881339537919
  C   4.67917843476166     -6.60557976002859     -1.19209278057330
  N   5.03259531780882     -5.17323309278866     -1.28616697520320
  C   3.64553045300447     -5.47733271369817      0.60493569937404
  H   5.49368375557877      0.07673817743049      2.18049952780975
  H   4.58062966542852      2.10385638434953      1.27230739701013
  H   6.01779868564543     -4.73331624771996      1.90069475289146
  H   6.93066509360252     -5.07279049254421      0.41274675278160
  H   5.47470738745438     -6.89561012111950      2.00124545463656
  H   3.85802269479562     -7.72821173375398      0.53617606320456
  H   3.81300682808472     -6.85614132633140     -1.81152707552069
  H   5.51803562816452     -7.24092528519295     -1.48349618524519
  H   4.41496108869641     -4.65677476195344     -1.90338525967148
  H   3.45095893705849     -5.32276701832823      1.66744963771317
  H   2.74613160748120     -5.29021235348180      0.01760705448069
