22
Coordinates from ORCA-job 13848optt
  Br  0.86170668701975     -0.34587388642815     -0.00624355191179
  C   2.74772955685922     -0.18762204042811     -0.04991040542617
  C   3.52984685943389     -1.28815953103190     -0.07043448287241
  N   3.20225771292969     -2.62707522444289     -0.04883597592938
  C   4.39507527120136     -3.33380674520757     -0.13898459612728
  N   5.44680380128566     -2.52136063004308     -0.15409243111839
  C   4.97870850332586     -1.25501154271153     -0.11576229442002
  N   5.74527065637495     -0.16739002954243     -0.11505168094678
  C   5.23329197245837      1.06909289416978     -0.08683335127812
  N   5.86554153198371      2.18602339308582     -0.07226704154354
  S   3.42387018750980      1.41572542803668     -0.07766164214872
  C   4.45735123859557     -4.75177969820842     -0.16283630962700
  C   5.51833116131855     -5.57656993563603     -0.37373580432524
  N   5.04006309477552     -6.88763731653890     -0.29479334511652
  C   3.69654316458106     -6.91683242198807     -0.02278976121533
  O   2.98254772911343     -7.89206191033339      0.14620753769387
  N   3.34191812421944     -5.58453070363963      0.02024741131012
  H   2.28848752941614     -2.96782340969193     -0.29587850858436
  H   6.86169300298749      1.96913051006062     -0.08753347734402
  H   6.54054570408660     -5.32621441679980     -0.58285346380851
  H   5.57477009361863     -7.73133377898475     -0.38238216678493
  H   2.44264641690523     -5.30088900369630      0.36642534152454
