21
Coordinates from ORCA-job 13841optt
  Br  1.10439325565400     -0.14967402211294     -0.27498798022360
  C   2.95486883097388      0.05026937011907     -0.07065265300592
  C   3.64195503757801      1.23353838572535     -0.06562594673465
  N   3.28797518397741      2.51103225574937     -0.18271829094875
  C   4.47264422547983      3.17078732004105     -0.07491585824868
  N   5.58957055363608      2.35824802425960      0.11024017369659
  C   5.09687784893138      1.15640524665281      0.11196334892561
  N   5.77603912253678     -0.02745447593190      0.25329879399208
  C   5.04209183946126     -1.08926494509324      0.23143277902100
  N   3.69176495198061     -1.11054349092341      0.08197077074096
  C   4.60102953573626      4.58825308208017     -0.07708377610580
  N   5.78685598880468      5.12201284180467      0.24282464171869
  C   5.95041010778096      6.42319494382308      0.49197931385335
  N   5.08330754974816      7.38950316512887      0.64766572586443
  S   3.47802161877675      7.03346812753058      0.36436012901128
  C   3.45627859535992      5.44660830274738     -0.44085887314852
  N   2.52357437990663      5.12839300076188     -1.24369202054972
  H   5.49742441688759     -2.06771698211270      0.34061020287339
  H   3.20858818609655     -1.99325811826250      0.08285833529644
  H   6.98401326036445      6.72662661300347      0.65205010235059
  H   1.88031551032879      5.91157135500931     -1.36971891837878
