23
Coordinates from ORCA-job 13843opt
  Br  1.34926816316850     -0.25541114215269      1.48665708149901
  C   2.82271674736089     -0.01936421322387      0.12323333489094
  C   3.52985145232359      1.20585224921132      0.07919011206299
  N   3.10069813364312      2.48085107864251      0.11242659927008
  C   4.24111884419483      3.16972723799125     -0.02514508869351
  N   5.38260177879359      2.46267628762523     -0.14143110714140
  C   4.94314862503889      1.19677188400879     -0.07133075649704
  N   5.71424782545662      0.06563798540614     -0.11883569573355
  C   5.04390194480701     -1.03457719691242     -0.04705480379027
  N   3.67264905629922     -1.11210697540652      0.05584615607485
  C   5.71454504780603     -2.30621964487118     -0.10056425011019
  C   6.22805381089365     -3.38852107304262     -0.15213005260880
  C   4.24733576956026      4.64865203624701     -0.05886548341633
  N   3.21112213229585      5.38526549275234      0.04119731575861
  N   5.51939424210186      5.16794780038808     -0.21774151410480
  C   5.88037641283437      6.49455671870178     -0.32192088904720
  N   5.15252514808092      7.53010688549210     -0.29052915762413
  H   3.26118994756146     -2.03267421416258      0.05733862658536
  H   6.70311923152435     -4.33816540943931     -0.19952801237612
  H   2.40859719102530      4.76588381725063      0.14955812516067
  H   6.23807623155179      4.45880816553373     -0.27507338511673
  H   6.95888236585526      6.60380814624199     -0.44948630963650
  H   4.17657989780484      7.25749408371292     -0.16481084531494
