21
Coordinates from ORCA-job 13842optt
  Br  1.14170989209289      0.08233756337102     -0.07208879132359
  C   3.02339578657065      0.18120150293312     -0.05632420382985
  C   3.72393855847024      1.33412803136752     -0.05617740753403
  N   3.39139141230697      2.66288042654347     -0.06383491232046
  C   4.59216529650690      3.22742432419051     -0.05908455461619
  N   5.69909243128618      2.44844125720432     -0.04989843096632
  C   5.18464574908180      1.20580161852419     -0.04745990059148
  N   5.83475803886787      0.05375986936380     -0.03976292244656
  C   5.09006466865046     -1.06183663217630     -0.03811535429618
  N   3.69194748345557     -0.99700932038371     -0.04601712919550
  C   5.61049986067163     -2.37341067172145     -0.02892088695403
  N   4.72474087270117     -3.41223594838657     -0.02129912035710
  S   5.55308521250817     -4.84270890970508     -0.01414287792258
  C   7.10066159080107     -4.13813464468647     -0.01983837198016
  C   6.99875174725293     -2.77986296332385     -0.02811111282549
  C   8.20504106781626     -1.92937321549970     -0.03719998947720
  O   9.32764412951714     -2.38893006956034     -0.03669809923968
  H   4.68992893713085      4.30699958221674     -0.06264293667566
  H   3.21383085644010     -1.88953807611868     -0.04475703869643
  H   8.01973260460806     -4.70347139656399     -0.01842598409776
  H   8.02897380326307     -0.84646232758854     -0.04519997465374
