21
Coordinates from ORCA-job 13840optt
  Br  0.84502092382249     -0.27255614699377     -0.96490065866620
  C   2.82401100425452     -0.07004530448840      0.25233785624455
  C   3.59894772327627     -1.21333973125180      0.29013405243787
  N   3.29156730643642     -2.51717741332639      0.55073915836992
  C   4.46889889309807     -3.11120294356479      0.42331242475075
  N   5.54436578442120     -2.34576639802435      0.09502137972166
  C   5.00165435095033     -1.13391211557107      0.00748797672828
  N   5.63275854855985      0.02957146967687     -0.32584010845794
  C   4.88658969158789      1.07426179497135     -0.33478738659839
  N   3.53059710878430      1.07584169228541     -0.04020402900013
  C   2.86892411971604      2.31080925372958      0.05313338108896
  C   1.60205426799601      2.51920141472177      0.54935400226543
  N   1.40158139030123      3.85903650860208      0.42978423269012
  C   2.52317489602051      4.39488430276328     -0.11768164583602
  N   3.43131650251121      3.47344568777990     -0.35220731797181
  C   2.64561686072006      5.78841795598213     -0.37749449241985
  N   2.70081578091044      6.91896955397608     -0.57121914847537
  H   4.57974756145727     -4.17776574031471      0.57363960290166
  H   5.29383070108366      2.04961865701234     -0.56273069194326
  H   0.86462232619662      1.82913631795557      0.91485791740810
  H   0.56090425789555      4.35957118407888      0.66326349476169
