19
Coordinates from ORCA-job 13851optt
  Br  0.75915240164324     -0.00613152577214      0.34778398254916
  C   2.61613225738752      0.11965156442677      0.14854710819894
  C   3.31092839828613      1.32933340018987      0.10126743681901
  N   2.83209356872963      2.59123015448110      0.10761270399133
  C   3.95929022757486      3.32482140732308      0.02624925817267
  N   5.13099491770118      2.66007348101626     -0.03246368910104
  C   4.73233169135573      1.38942713101203      0.01584653163128
  N   5.59199756340244      0.30748037240417     -0.01333467025791
  C   5.12868224989731     -0.86284945145163      0.05056327573778
  O   5.90258308689801     -1.99222738142080      0.04036234134981
  C   7.27597766850125     -1.98123572694983     -0.02935219211229
  N   8.07538573629822     -1.02153275842147     -0.12027018434810
  C   7.74188681554398     -3.35322889958194      0.01816880813675
  C   8.12944602802535     -4.48418886117487      0.05820917453850
  S   3.45532351096048     -1.41080075280388      0.17567325841664
  C   3.91992934011843      4.75542777739692      0.00690149042616
  N   3.88736895210020      5.90509454964681     -0.00866617408780
  H   7.57641137849074     -0.13075929188081     -0.13750486188814
  H   8.47908420708524     -5.48758518843966      0.09340640182724
