19
Coordinates from ORCA-job 13850optt
  Br  1.30481697017502      0.08290282863947      1.34402498301976
  C   3.05111665293210     -0.08065782426611      0.68206918040745
  C   3.64039795641458     -1.22313561695508      0.30951575210356
  N   3.25778669290317     -2.53603809313490      0.27587176346905
  C   4.35288271111238     -3.10737552087656     -0.21006245628559
  N   5.43284059037685     -2.34719770031722     -0.51312634457825
  C   5.01836198684516     -1.11350674150097     -0.19304406994344
  N   5.66420190183760      0.03314984101100     -0.29196822188607
  C   5.01665493702772      1.11623859534510      0.08911531882112
  O   3.70185026199771      1.09224553975390      0.60069384539398
  C   5.53270176183627      2.43432348171917      0.03773072275313
  N   6.74095827710192      2.72144360200165     -0.40914004932550
  C   7.11432098544113      4.02909459774591     -0.41831606018089
  O   8.19058843262566      4.43020694083733     -0.79780988360639
  N   6.18241995402244      5.06123553816240      0.04982931557797
  N   5.05477094417975      4.73719778188941      0.46556797453553
  N   4.70498114089931      3.44659008188189      0.47966175466842
  H   4.38592542308927     -4.17921310839521     -0.36518477682039
  H   3.77642241918187      3.26549577645882      0.81957125187656
