24
Coordinates from ORCA-job 13860optt
  Br  4.85991081604225     -0.18034780906246     -4.01492021821382
  C   3.51520344906945     -0.90119391628714     -2.87420540482048
  C   3.85384275478897     -1.85307882524529     -1.88444329899841
  N   4.97427129064010     -2.50219582933957     -1.48421463723081
  C   4.51832620012336     -3.28750935248710     -0.50697533627652
  N   3.18057902953749     -3.21325869986889     -0.22713519827959
  C   2.77914489010182     -2.30163085243606     -1.10983149390341
  N   1.53636639461242     -1.77081273775084     -1.31701808533927
  N   1.26110955473376     -0.89846261036409     -2.36821469396387
  N   2.29162080154794     -0.49343488744082     -3.07263387794283
  C   5.43609156206422     -4.18143709220440      0.26775988391234
  O   5.90644768785550     -3.59828794667889      1.48969791283972
  C   4.88020344111640     -3.50757100233763      2.45053637030429
  C   4.52578046117251     -4.90126879253016      2.93343537274912
  N   4.34381802058677     -5.77043037426077      1.78685951470164
  C   4.79472070301098     -5.54252961043489      0.52408714204558
  O   4.69888935941277     -6.38299043238432     -0.34785784819050
  H   0.71519218358734     -2.19118679635902     -0.91739664501583
  H   6.32423171732108     -4.35365703665908     -0.33649658107503
  H   3.99983239392673     -3.01893995025157      2.02552480725631
  H   5.26288201421625     -2.91045539601812      3.27851644249280
  H   3.60327202862019     -4.86825266225726      3.51880267020341
  H   5.32693910757405     -5.28480229673911      3.57512318621537
  H   3.96632413833753     -6.69526509060247      1.92400001652976
