21
Coordinates from ORCA-job 13861optt
  Br  1.25495712273367     -0.02252670041276      0.49266124917500
  C   3.13262603062656     -0.03533798831404      0.25479219881645
  C   3.83125623943293     -1.22752707543536      0.06853843883718
  N   3.48144570942517     -2.53102441469323      0.01533856439247
  C   4.65787455735197     -3.12525400756888     -0.18550841606963
  N   5.75843065973994     -2.33607483927148     -0.27211209324233
  C   5.23042931729125     -1.12743251078032     -0.11054919573401
  N   5.81617797080303      0.13467529879520     -0.09496358459342
  N   5.02299458600533      1.26433206626760      0.11641954129234
  N   3.74159066486606      1.12514537045843      0.27524690863704
  C   7.17105558686433      0.31814996232139     -0.29126861743648
  O   7.91448803284153     -0.62849258121959     -0.48336446141300
  C   7.78320858891971      1.72452975680501     -0.27780325830000
  N   7.25861138304599      2.86160141822247     -0.11554964804471
  N   9.16048678228142      1.60141416176797     -0.49836176093267
  C   10.02812425434446      2.64736712867478     -0.55372598191118
  O   11.21617808151302      2.52192167651064     -0.75102421766924
  H   4.74476748328500     -4.19882324382160     -0.27822278702881
  H   6.25871791338501      2.74980334417494      0.03213872496750
  H   9.50878278549469      0.65958446012416     -0.62840618592994
  H   9.53779624974879      3.61596871739465     -0.40127541781255
