21
Coordinates from ORCA-job 13879optt
  Br  0.80238040835804      0.13143842901236      0.08915243262877
  C   2.67840904976655      0.13208120745736     -0.03111323006946
  C   3.42773957653038      1.31830728167332     -0.03664391206563
  N   3.11873791607832      2.61869850749640      0.01263441495128
  C   4.32222633180034      3.22417406263237     -0.07103023322306
  N   5.41514711357919      2.38294921051314     -0.16186010635045
  C   4.84976130838334      1.21469847423954     -0.13927110787601
  O   5.52760430008776      0.03024726572808     -0.18450403815930
  C   4.75275161806950     -1.08964903369345     -0.21079580891356
  N   5.53397585827093     -2.24635913047633     -0.26803079837477
  C   5.38688211335574     -3.32520076450462      0.54320575303634
  O   6.01971441891828     -4.35086024750351      0.43767993572512
  C   3.39259750234207     -1.07625702733775     -0.15821024422888
  C   4.51991555386877      4.64728446799529     -0.02023474866096
  O   3.67356434133077      5.50821437964041      0.18233392109168
  C   5.92822530265031      5.19643834231321     -0.22334934973076
  O   6.59928871431528      5.04625708256224     -1.20514871952326
  H   6.29036803045409     -2.28410347082596     -0.93945559889861
  H   4.61402494664790     -3.16710483351690      1.31114308499996
  H   2.87351250180894     -2.02110666557455     -0.23361767688729
  H   6.23817309338344      5.89185246216934      0.58411603052883
