22
Coordinates from ORCA-job 13876optt
  Br  0.90217329925398      0.21786516994723     -0.42215299413952
  C   2.76920630376443      0.09211043641504     -0.16627328603984
  C   3.55525358308199      1.23790471680539     -0.13440283259373
  N   4.95320751100755      1.12816002972513     -0.09314681381166
  C   5.44546815628657      2.39497014876225      0.11997015927521
  N   4.53923010058107      3.30531010334053      0.18187061994738
  C   3.27563384974854      2.64579173066495      0.03499849863723
  O   2.19007362732738      3.22243503086923      0.06448198080738
  C   5.65896376070009     -0.04924503214256     -0.04431921727013
  C   5.10954913250608     -1.24547119901535     -0.31425593565622
  S   3.42349308437017     -1.43330005878262     -0.80567446460647
  C   5.88441642571024     -2.47229911014765     -0.25934564998039
  C   7.15998729756111     -2.74916895676591     -0.55762313438246
  O   7.41978871995616     -4.08911288981192     -0.30475557471434
  C   6.26368172897856     -4.67423929181650      0.13299379979998
  N   6.10235334285157     -5.89162298617690      0.45092897552991
  N   5.32740182867746     -3.68152302492733      0.15999819316900
  H   6.51446021495961      2.54599833438609      0.20218118638612
  H   6.69456145519253      0.03550779984421      0.26161690427259
  H   7.95935787436999     -2.15654047833266     -0.95919089138694
  H   6.97037643272436     -6.40201192947053      0.33258320813211
  H   4.37136227039049     -3.80951854337011      0.44551726862483
