26
Coordinates from ORCA-job 13883optt
  Br  0.86947466223000     -0.32332926301859      0.33776893295679
  C   2.74937986315339     -0.11637369788854      0.24199008136284
  C   3.58327959791506     -1.24187646534728      0.29825288224921
  N   3.38802184116345     -2.57649802978256      0.44321371204276
  C   4.63572324088627     -3.05295622844090      0.39393541241202
  N   5.64402647002846     -2.15431663209904      0.22965064414620
  C   4.96568692104181     -1.01741856314879      0.17145896029871
  O   5.52478796092260      0.19890539011820      0.00848787479881
  N   4.68015994172350      1.31233740277272     -0.03215804790390
  C   3.37775642411556      1.12398092014011      0.07593060808183
  C   2.58184850610250      2.42213658607944      0.01017497999847
  C   1.77377018716622      2.73951631915759      1.29491020701753
  C   2.04854156387554      4.22518272386929      1.57989339272825
  N   2.52795891746449      4.72618743288042      0.29315200168794
  C   3.44812010666942      3.68099901251616     -0.16331557568978
  C   1.64696995058556      2.38231491144606     -1.20873217253277
  O   2.04102143396035      2.34985442620277     -2.33844959367278
  H   4.84348370986039     -4.11081713262523      0.47966968613518
  H   2.08079372919858      2.09844090573561      2.11941473649611
  H   0.71099666643827      2.56215696628129      1.12807599994382
  H   2.81196942329416      4.31760306437963      2.36520691523026
  H   1.15838139936844      4.76605774799788      1.90389477730796
  H   2.99670156871921      5.61862012715229      0.38632800290334
  H   4.34169363850915      3.59748919057380      0.46168353414098
  H   3.74999799504582      3.82111551059641     -1.19930140051726
  H   0.56345428056161      2.41868737445115     -0.98913655162254
