23
Coordinates from ORCA-job 13897optt
  Br  1.43372708641085      0.20775229219734     -1.27678671473327
  C   2.95839793993856     -0.05073268476491     -0.11054310856880
  C   3.57599518571546     -1.31088000631523     -0.11151839129051
  N   2.98995215462151     -2.54349773481660     -0.19900693634823
  C   4.02438400497243     -3.37086357984621     -0.14577612444543
  N   5.25876280927557     -2.81023488995447     -0.04393699977644
  C   4.96040457333458     -1.51124205247542     -0.02694688141912
  S   6.15315505872750     -0.24233357070379      0.00677308369899
  C   5.14183073707045      1.19061582063660      0.08316407798876
  O   5.69281220997717      2.26789026379006      0.25792202881638
  N   3.76348022678420      1.10596604799557      0.00721007772538
  C   3.07531017192579      2.35176306777869      0.26613034378528
  O   2.20503742324138      2.42222819363552      1.07769549167862
  C   3.45509097644118      3.53746894436127     -0.61477347242841
  N   4.07808381186377      4.60373714453785      0.12681614238042
  C   3.35948438399070      5.58229522604088      0.75140318041695
  N   3.75854768514473      6.43042944106388      1.61157849999082
  H   3.90338948392923     -4.44492839141973     -0.18115223698080
  H   2.51450821813677      3.90040698350116     -1.03397221709422
  H   4.10305032735852      3.21757201804522     -1.42675516925964
  H   4.98460829729387      4.35689725806703      0.50253363881907
  H   2.32366713456010      5.63216482915386      0.41386566506800
  H   4.73632009928546      6.27152537949135      1.85707602197620
