16
Coordinates from ORCA-job 13890optt
  Br  1.07113631290866     -0.17766538387807     -0.05491990785769
  C   2.95693209537352     -0.04501430475152     -0.05485359939419
  C   3.67525724588421     -1.24723030734015     -0.05559432332601
  N   3.21643431411489     -2.52484385838117     -0.05655603720121
  C   4.33707320995372     -3.23969699872758     -0.05667417128874
  N   5.51214396119558     -2.55997953919109     -0.05610093994156
  C   5.09727138901998     -1.29471839337933     -0.05567495914877
  S   6.11502948447005      0.07699042600590     -0.05478996886733
  C   4.96239721394320      1.39635361400075     -0.05405566714270
  C   3.55462602272124      1.20287129245353     -0.05413755753918
  S   2.56883803401010      2.64949642905968     -0.05326420799400
  C   3.78330507070795      3.98964357371302     -0.05254866450333
  O   3.29916849435731      5.09833671519628     -0.05227432889130
  N   5.12609813969676      3.74897135802065     -0.05279576908450
  N   5.62972648186534      2.54269051167528     -0.05345432174689
  H   4.32256252977745     -4.32120513447617     -0.05730557607259
