25
Coordinates from ORCA-job 13899optt
  Br  1.07748843532496     -0.70564969029313      0.41899437156648
  C   2.86194979092152     -0.22509610963954     -0.03077348935073
  C   3.79131843919491     -1.28481430843923     -0.16651818006709
  N   3.63163416326129     -2.61947781016900      0.01690250214041
  C   4.85172001546510     -3.10397887167456     -0.23293984119457
  N   5.81182490346144     -2.21371711455470     -0.56789102382101
  C   5.13689948755449     -1.05772247704268     -0.52586263396327
  S   5.74550896715487      0.52538858719789     -0.84022491971510
  N   4.45225185158534      1.51977208912674     -0.57149537967735
  C   3.23756711319945      1.10302763621033     -0.23245704181923
  C   2.22672602657429      2.23991334228333     -0.09157930170663
  N   1.59735780451546      2.53160687973659     -1.38680908501651
  C   2.37146457994851      3.48066457616685     -2.17776257977004
  C   2.52825554587232      4.83304413709539     -1.48350187944882
  C   2.93278554817176      4.63216703976616     -0.04816448697245
  C   2.84301539600197      3.45359402270160      0.55421721729545
  H   5.06794768912113     -4.16238984130821     -0.17158061953324
  H   1.43284410289458      1.88607168328913      0.56603074343390
  H   0.66867026046219      2.90292150347534     -1.22051356015064
  H   1.89744796550701      3.59445293878442     -3.15474025046735
  H   3.35855735950583      3.04100919702743     -2.33080114561929
  H   1.59066670729403      5.40064266999421     -1.54028850605786
  H   3.28319158319957      5.43561827780630     -1.99802368080782
  H   3.34690238816930      5.48095467661285      0.48655661902938
  H   3.21500387563861      3.32499696584650      1.56522615169339
