23
Coordinates from ORCA-job 13904optt
  Br  1.63477313264429      0.58481694683509      0.19910884390664
  C   3.92184392476793     -0.08499997027771     -0.49617990840356
  C   4.43756532644945     -1.33939344905712     -0.39322558704413
  N   3.76653904813814     -2.54584256079043     -0.38930176734167
  C   4.63404768240549     -3.59585471952833     -0.09910878473993
  N   4.34809766039544     -4.83529419566539      0.09179660871887
  C   5.96956327216298     -3.00119771610488     -0.05728222590369
  C   5.82927540992348     -1.61297070132345     -0.21352536933333
  C   6.67844777154271     -0.48514108913246     -0.06425308678397
  C   6.11983568785604      0.76406612997255     -0.09462378664613
  N   4.80050729116489      0.93611695810905     -0.32603766937027
  C   8.15801539477301     -0.56330542851943      0.14258977795163
  O   8.73448958585915      0.19961881081694      0.88390276179528
  N   8.82599468349660     -1.42109014882247     -0.71641171943043
  C   8.82314611824469     -2.68520235870982     -0.69009767229516
  N   8.34172632111301     -3.57605065131357      0.24401808234330
  C   7.08052206329638     -3.75488026295245      0.43027434659802
  H   2.76272173598962     -2.59612622357352     -0.32599690879708
  H   3.34390184823745     -4.98803702912260      0.04325158910214
  H   6.72265833740023      1.64912133399520      0.05345064008870
  H   4.41537413172603      1.86994872727071     -0.34253783610045
  H   9.35769212396073     -3.18660114699416     -1.50045891525955
  H   6.80326144845197     -4.60470125511165      1.05464858694477
