22
Coordinates from ORCA-job 13908optt
  Br  1.00995778815104      0.08560872725959     -0.87694342103630
  C   2.81106473600198     -0.09327484886429     -0.39153227704924
  C   3.41200991374487     -1.28075237429406     -0.17792953663531
  N   4.85892753370831     -1.26379436064627     -0.06206950261016
  C   5.61256895372720     -2.41511915935687     -0.21516186972019
  N   5.14968578447183     -3.60447143014794     -0.32096080837002
  C   3.78080600602305     -3.70260877810966     -0.21824844880775
  C   2.89656248112752     -2.61574866294036     -0.09740640169085
  C   1.57236041843100     -3.17708229567796      0.19730549099409
  O   0.52148550684308     -2.60512078739506      0.51734145522642
  C   1.75071621352404     -4.64076804254427      0.13328863846884
  C   3.06185521055389     -4.93312101516910     -0.10572386141740
  C   5.49135328678113     -0.05279359870724      0.07716963013026
  C   4.83685024795759      1.11255336893707     -0.03054061244811
  N   3.47377237924442      1.18651817085303     -0.39327044757222
  C   5.54225899360683      2.33428071856159      0.15987341856827
  N   6.10388530347603      3.32357004525488      0.33348285778693
  H   6.68339372532744     -2.23534039186109     -0.23181053459141
  H   0.93591083288560     -5.32933198481882      0.30180174686205
  H   3.52872300052887     -5.90523729214557     -0.17539352564429
  H   6.55464986043791     -0.07579256611035      0.26750910191247
  H   2.96520182344625      1.85082655792282      0.18321890764392
