26
Coordinates from ORCA-job 13902optt
  Br  0.96369900609124      0.02346802060499     -0.11228635880184
  C   2.83705875981791     -0.00243335664908      0.14501853783043
  C   3.49244875262837     -1.18018566466069      0.41905871308613
  N   3.04865931679743     -2.49094607679730      0.24775278188290
  C   4.13091778627908     -3.33785877735485     -0.05030349809826
  N   4.07694986506992     -4.54455754261004     -0.43870304069970
  C   5.41178299457979     -2.56477502723254      0.29194354579960
  C   6.28944164485779     -3.38045733136530      1.26985537569465
  C   7.35272706441611     -3.96607902995968      0.32981179644265
  N   7.65488527438455     -2.89766571160924     -0.63125842420174
  C   6.47251966390312     -2.12113606675918     -0.75111043162620
  N   6.54352260030018     -0.74029796935783     -0.87337435685971
  C   5.56796481944645     -0.26569198823231     -0.12353696370595
  N   5.00850380546332      0.99505813750064     -0.22170579373900
  C   3.60336815495539      1.19685468119938     -0.10987393988384
  N   3.06542570948389      2.35048607185422     -0.30197067335279
  C   4.86797272823987     -1.21973823419345      0.65019913533487
  H   2.12395920123414     -2.67374385163142     -0.11294410823435
  H   3.11334018159416     -4.86426363409422     -0.53183087342630
  H   5.73023309862262     -4.14121449838997      1.81497451484129
  H   6.74869445193836     -2.68779495085211      1.97941929425501
  H   6.92774289650431     -4.81806376853996     -0.20495389319694
  H   8.26110837612047     -4.29027776201423      0.83900207207854
  H   8.42175189536093     -2.31006911755649     -0.31612762784045
  H   5.47020649413353      1.62985696698862     -0.85618929856509
  H   3.78011545777699      3.04152648171206     -0.51886648501392
