19
Coordinates from ORCA-job 13913optt
  Br  1.47780601476040     -0.57233535126781     -0.22935147568361
  C   3.35604229108168     -0.15560664206829     -0.21423487185199
  C   3.73414531612651      1.16935271321731     -0.05902012382986
  N   5.14206077396007      1.43744721472615     -0.19061234205545
  C   5.62679654232345      2.63744117335439     -0.58807998510350
  N   4.92934839851583      3.71466573058664     -0.73428783294160
  C   3.61408845699544      3.57075489126420     -0.33662584162656
  C   2.97694460433261      2.40047147403274      0.02475297421120
  N   1.67461797156482      2.55629277177343      0.42573058559020
  C   1.31959971378125      3.79713742094896      0.35996469177536
  S   2.53162906505943      4.89694373783401     -0.17880594574173
  S   6.20915135504902      0.20682017612111      0.36909946365830
  O   6.04330519186045      0.24005340286063      1.79891067593865
  O   7.51986820462780      0.51195168714030     -0.14999300905915
  C   5.47276390580810     -1.09522169418745     -0.41025031374428
  N   4.13203283206940     -1.19111422274863     -0.44013098765234
  H   6.69544253459777      2.65336649060001     -0.77066892642507
  H   0.33465190509868      4.15080690942713      0.62894201228013
  H   6.11470492238727     -1.92222788361484     -0.67233874773869
