23
Coordinates from ORCA-job 13919optt
  Br  0.61893860604286      0.05893156288365      0.23079101122544
  C   2.96402864970268     -0.34412461378306     -0.54097468702427
  C   3.59384704428469     -1.41455136598605      0.04441623186870
  N   2.80811255664252     -2.51951229409938      0.48293365601967
  C   2.92733110492707     -3.82047683769144      0.04354172308069
  N   1.98623085131868     -4.67466077985196     -0.08033453078994
  C   4.31165759755981     -4.24271534104670     -0.18202196630275
  C   5.49434189990327     -3.70286979394552      0.20369069234448
  C   5.71993729379061     -2.42220065959432      0.93292506616897
  C   4.97379395762808     -1.27331953005392      0.28943889516755
  N   5.68216556129342     -0.20719838446886     -0.00989317270862
  C   5.06910302597122      0.88087967100079     -0.56750729016037
  O   5.61842858770443      1.92773787605578     -0.86243678471764
  N   3.68748092808812      0.74084050686135     -0.81242081937920
  N   6.51561835092668     -4.55198897980769     -0.19456855944357
  C   5.90593176932244     -5.52371897130827     -0.77980556198281
  O   4.57506567258166     -5.41758386388943     -0.81467627923800
  H   1.84839369354896     -2.22308828194841      0.64329673280645
  H   1.08320382310265     -4.23371891578658      0.09003548870936
  H   6.78090047166107     -2.18720965512912      0.95151635385527
  H   5.36173096690194     -2.52242015847523      1.96315394077053
  H   3.23684314840253      1.55504053180526     -1.20874179836890
  H   6.33891443869448     -6.39707172174080     -1.23935834190105
