26
Coordinates from ORCA-job 13916optt
  Br  0.68291715706532      0.35457748867371     -1.45731450552882
  C   2.64167328108545     -0.02533394740728      0.11624796248839
  C   3.44186002975104      1.08094764202190      0.20539606115482
  N   3.03800298652386      2.39848058129369     -0.13946834268076
  C   3.99324128572911      3.19334357885678     -0.72528394437933
  N   5.25596296927706      3.12832989848300     -0.52712579385168
  C   5.63839644767767      2.19003978947585      0.50716558999949
  C   7.19417141732956      1.94892103215231      0.83242450853439
  O   8.24512046462288      1.62505247737802     -0.14063199283623
  C   8.28230335078058      0.15493655631246     -0.22712062289329
  C   6.86051636247012     -0.02705157938610      0.31858459064874
  O   7.08128338990177      0.76295551844349      1.52868329679020
  C   5.37815914164367     -0.38326821724472      0.37686043800691
  C   4.57750136406904     -1.55927845530577      0.28528653335673
  N   4.90222492004084     -2.81162792605917      0.26380393895072
  N   3.20598847119362     -1.24006525866592      0.20829838741297
  C   4.80500326819077      0.88154189711642      0.39751282550627
  H   2.11171865920659      2.42101390492600     -0.55416508086658
  H   3.60559082647887      3.93878412170953     -1.41484357569164
  H   5.31301761531442      2.61933288427171      1.46958220188976
  H   7.58866600450756      2.77612980597549      1.42267124530049
  H   9.08524113483848     -0.22982255161242      0.39982008342306
  H   8.40581919681606     -0.12157066138625     -1.27130096863582
  H   6.59736578212191      0.66041256342078     -0.48279584704379
  H   5.90948781070135     -2.89868977293228      0.35690891565322
  H   2.60776666266226     -2.05309137051126      0.13780409529178
