26
Coordinates from ORCA-job 13932optt
  Br  1.30087671264278     -0.40932724571084     -0.45483278234158
  C   3.14287657401198      0.10461673040638     -0.34652144650413
  C   3.49767339834570      1.40527138378925     -0.78057080994296
  N   2.88897769720195      2.62340301766053     -0.29587736583192
  C   3.76338757506037      3.59497182708117      0.09910982224865
  N   3.55334060943576      4.74309035029337      0.63803779520632
  C   5.16307525605909      3.12172537300955     -0.28349080952270
  C   6.18469894945613      2.91492226380211      0.85698418188785
  C   7.34632008755140      3.87708790950507      0.91826903371425
  C   8.24573205995177      3.92166818234896     -0.28542347174046
  O   8.08940878328678      3.31859273565310     -1.30748067886828
  O   6.68894521732252      1.55181146351870      0.71477552168854
  C   5.70412039000279      0.90102676374645      0.01833847564299
  N   5.44896835298252     -0.42638769701407      0.21136043239995
  C   4.06838099137657     -0.88988829201655      0.03553106078516
  N   3.80426376520138     -2.13909301125040      0.28136153611633
  C   4.89768035707340      1.70673472364474     -0.67501803578953
  H   1.89508905467336      2.69242774912928     -0.14861261226893
  H   2.56015630140821      4.89025343333355      0.81219373685893
  H   5.55188057481317      3.77475648972487     -1.07143914419383
  H   5.65087806065107      2.95392734161286      1.81221956858954
  H   7.98353242020325      3.66182332454978      1.78301307621686
  H   6.95493291841129      4.88944122328678      1.07515452598035
  H   9.12282202640931      4.59456520711301     -0.16691220701794
  H   5.91340796666324     -0.85185701543565      1.00001980039919
  H   4.66057389980408     -2.63256423178204      0.51981079628736
