21
Coordinates from ORCA-job 13937optt
  Br  4.93198214033033      0.32077664936316      2.19326062369350
  C   3.82257393583253      0.60818057034813      0.65546934381019
  C   2.63881520162169      1.22170082594930      0.74228146109891
  N   2.12230137434620      1.68479866184564      1.97442105063397
  C   1.52129327160173      2.88775380462206      2.23637114749957
  N   0.95020938091917      3.71196102044087      1.44941334208452
  C   0.82802828078169      3.45423266305330      0.10311723925104
  C   1.16984334979144      2.41598163052218     -0.75202629947832
  C   0.68077219526135      2.81811509256215     -2.01639256343104
  N   0.09481936029243      4.00540170798026     -1.95281473008631
  N   0.19882189437885      4.37406658313301     -0.68000459003232
  N   1.86786260726035      1.26077403952958     -0.41635913406768
  C   2.04067865522234      0.21073136082585     -1.40096346245516
  O   1.11914032412058     -0.01605823782080     -2.19488053490514
  C   3.29811144005084     -0.46824975228817     -1.40493765002475
  O   3.68613946058529     -1.37303704737658     -2.11547063119022
  O   4.28829057645106      0.03826668803630     -0.44382863579834
  H   2.58222752529589      1.27374763565421      2.77191598940869
  H   1.53331444542461      3.13174007488123      3.29574116783273
  H   0.72229551435133      2.26058643911857     -2.93540677137525
  H   -0.18852093391974      5.24152958961971     -0.35490636246859
