21
Coordinates from ORCA-job 13933optt
  Br  1.28402464976733     -0.24640456987143     -0.67384885854684
  C   3.15808338997130      0.00798666373249     -0.67251275504199
  C   3.71360257850502      1.21593426993884     -0.22111446861833
  N   3.00543671915540      2.16703018054469      0.52500611981338
  C   3.70138591128705      2.80183277691779      1.53462300956624
  N   4.96148676716528      2.92399951684313      1.65533706209739
  C   5.76168461424133      2.43271667624781      0.52919193676904
  C   6.26883925273636      3.59577468819969     -0.22628843179369
  C   6.67275075919834      4.52739664636827     -0.86257910551930
  C   6.99839074062883      1.58174593229698      0.97218361992053
  O   7.81955407119002      1.87048392195963      1.78780402430457
  O   7.04150188011883      0.44995047688135      0.24319372023551
  C   5.94544846715515      0.40422456575807     -0.68931909942718
  N   5.38185955091969     -0.84359802368881     -0.93059229898414
  C   3.99433451017628     -1.07734811730263     -1.06645971829678
  O   3.62746860177033     -2.17513716779834     -1.48054705181973
  C   5.05596882305286      1.43207159996970     -0.32157396865448
  H   2.03056701309640      1.96685600310510      0.69008585913809
  H   3.06648486915074      3.22344722827671      2.31019589115800
  H   7.02806495652080      5.35180426135406     -1.43101381862457
  H   5.93306187419255     -1.56876752973317     -1.36377166767573
