27
Coordinates from ORCA-job 13943opt
  Br  7.61953717632384      4.09826114476530     -1.92997509681440
  C   6.69486908402083      2.76320874215600     -0.83623836200530
  C   5.68689835388689      3.18744827890668     -0.00509098023544
  N   5.30707309221073      4.56527511309260      0.04857244518820
  C   4.19543375243828      5.37827300862208      0.23952114513507
  N   2.95135293455793      5.31804427533055      0.54500528760157
  C   2.10212260641194      4.14842582030450      0.72244039390016
  C   2.78679885395937      2.88278970100811      0.27810071674900
  C   3.82909573548568      2.68041835353226      1.38732221582874
  O   3.16792868216518      1.96529122251413      2.44780222216887
  C   2.05523942457455      2.59229967343563      2.86097040270717
  O   1.37610844629947      2.10993371322489      3.72816996456274
  C   1.70920492049730      3.94651554791487      2.22139359486762
  C   5.11484856691715      2.18332547012638      0.87358864155655
  C   5.45568602863111      0.84006391238059      0.57210145110625
  C   6.46245167869836      0.56935573244469     -0.30948291491736
  N   7.17019464222632      1.53676712350265     -0.98656012680917
  H   6.06827769644732      5.13577368991989     -0.28778654103339
  H   4.54635793809171      6.40334555842371      0.10697363387683
  H   1.18906961303720      4.35406705631149      0.15985116149144
  H   3.25483612993863      3.00445570683400     -0.69810222401662
  H   2.12266792383813      2.01544744136616      0.24144429844875
  H   4.05406292285683      3.65702553820462      1.81554076238174
  H   2.21377527613379      4.70899139840328      2.81965304997220
  H   0.64153160421558      4.07626767146599      2.38299688182541
  H   4.94780991078956      0.02939491463534      1.08147675868254
  H   6.77376700534574     -0.45146580882678     -0.49968878221923
