23
Coordinates from ORCA-job 13950optt
  Br  1.17662241261147      0.41654271492424      1.25362741797023
  C   2.77147486146429      0.32282034889875      0.23518458412261
  C   3.53188885759750      1.41543012281259      0.03152721967841
  N   3.22791362961551      2.78563682339916      0.26357016410332
  C   2.07539805783243      3.43156649077754     -0.18437588764869
  N   1.04690851044995      2.97338459997157     -0.75348960364123
  C   4.47385523564695      3.47539406216235      0.19260223608875
  C   5.40932205471160      2.56778778209674     -0.18133277944131
  N   6.61863515047655      3.15375280040309     -0.26814837060109
  C   6.45302543375131      4.48491420167401      0.06320698878875
  C   5.12033724480849      4.72459356838732      0.34616973475620
  N   4.87547948197355      1.30586809016820     -0.35810091263408
  C   5.71387051367855      0.14870622709823     -0.18347948411287
  O   6.94815252330472      0.36827061550823     -0.16283543174224
  C   5.09443226614712     -1.11918508823767     -0.04922073732894
  N   5.71498593810929     -2.25380261822061      0.13547591874209
  S   3.31640152665758     -1.26468760140895     -0.27403770149451
  H   2.14246270027480      4.50095872308211      0.01253972185107
  H   1.10805432120234      1.96756781359649     -0.90110929769517
  H   7.46365197937718      2.61400038751059     -0.37386118664678
  H   7.29328060290942      5.15557187998487      0.08708041085881
  H   4.70216467516651      5.67705921549832      0.62445426851185
  H   6.71468202223279     -2.04215116008720      0.15055272751481
