27
Coordinates from ORCA-job 13959optt
  Br  0.95274756595259     -0.04538876094143     -0.52147377389360
  C   2.77463951512062     -0.17248243277125      0.07574094419330
  C   3.44100785447000     -1.35919824942944     -0.01677471573266
  N   2.81724031149780     -2.56996933505784     -0.48392824695882
  C   3.49865783185771     -3.12091841414500     -1.60025193864435
  N   3.30661247419725     -2.73349073557848     -2.78870906537652
  C   4.58431733757496     -4.13468195865665     -1.31559364249494
  C   4.23006740491112     -5.15684529944557     -0.23480642656005
  N   4.34651395214255     -4.61286539416522      1.11230413138177
  C   5.16044352563000     -3.57346499420220      1.52010604756288
  O   5.39383407438030     -3.42603903473310      2.70508632184064
  C   5.66040554796608     -2.62836834003817      0.43431079760401
  C   5.85782165988889     -3.39147119847041     -0.88557805665713
  C   4.81257114799134     -1.37697508459585      0.34818768355399
  N   5.39479959450873     -0.20253548960316      0.80156170066560
  C   4.62558083213465      0.85266365788457      0.85058042083674
  N   3.32484061848281      0.98467958418191      0.52322209230446
  H   2.80219126980312     -3.22890689990724      0.28527814765081
  H   2.58753544529125     -2.00634092862627     -2.78341485588473
  H   4.77065462879950     -4.67108715603109     -2.24618004763684
  H   4.90269840688998     -6.01463174940375     -0.35146791045776
  H   3.20909948273178     -5.52307978870129     -0.37838603886633
  H   4.08096260130943     -5.21584978330676      1.87735145877614
  H   6.62567439100400     -2.27313316006633      0.79423129032582
  H   6.65653811401148     -4.13350677590029     -0.76092903291241
  H   6.15658605942773     -2.69225850709901     -1.66689839741690
  H   5.09595835202428      1.76814622880936      1.20643111279686
