25
Coordinates from ORCA-job 13957optt
  Br  1.09169541033146      0.42304786814706      0.50247815466218
  C   2.88715422108896      0.18323597424794     -0.08069671048816
  C   3.62098178191750      1.29591328357193     -0.34167858914929
  N   3.30045655741653      2.65453792211133     -0.24540597611378
  C   4.43703231670661      3.44802483764716     -0.25628963171168
  N   4.54652790845238      4.69315489876704     -0.01745453694834
  C   5.60877397799265      2.54909695183458     -0.63928465504165
  C   6.78528468510934      2.51470154423578      0.32568991311665
  N   7.60688020511387      1.36018659883019     -0.04078432659885
  C   7.10997628251730      0.05362893457785     -0.13106587213789
  N   7.84139265678231     -0.98934199489603     -0.12232909642606
  C   5.62115396186977     -0.00793751387143     -0.28343696828001
  N   4.95663902119168     -1.10883073993469     -0.02766066774819
  C   3.58265884230030     -1.08805427861209     -0.04312929586277
  C   2.94070864095226     -2.36027052372137      0.04174890913552
  O   1.72528078863060     -2.59384174834002     -0.02773671358728
  C   4.99230381804134      1.19340444543863     -0.61235373136126
  H   2.40642698688651      2.96577603503108      0.10053541373658
  H   3.64480937808059      5.10716208582845      0.21552247766236
  H   5.97483362733900      2.86085830972216     -1.62513035475944
  H   6.40536920699383      2.44059182605421      1.35192748304721
  H   7.39985481644818      3.41209231255547      0.25156405071307
  H   8.56676984904239      1.40263453735977      0.26231506046664
  H   8.82242730452091     -0.73894307761089      0.00912335818171
  H   3.66860775427367     -3.18082848897413      0.17153230549272
