21
Coordinates from ORCA-job 13962optt
  Br  4.45403886795970      0.10595711096473     -2.40106247190178
  C   3.07436886922230     -0.00756592755945     -0.88232420178820
  C   2.47879599199061      1.21985627792999     -0.57939020150073
  N   2.79126856888914      2.43250632768601     -1.27567889479864
  C   1.76491522590471      2.91672981744948     -2.13347643392309
  N   0.66881842798693      3.46498427569514     -1.72502721798721
  C   0.33302508822926      3.37648496517076     -0.42498642950544
  C   0.65507785471792      2.41898645532568      0.54497922536295
  N   -0.20460975686870      2.66235996267616      1.61999116863040
  C   -1.05815593857055      3.71192433270456      1.37343148440521
  O   -1.91579170689403      4.16669584069865      2.11230446835815
  N   -0.71427009639143      4.13677810286758      0.11583819868554
  C   1.51435237975349      1.32018894054738      0.46236901700639
  N   1.40642349820764      0.40850916985211      1.51014966918092
  C   1.82139424526461     -0.65560464406579      1.88150509240177
  O   2.11614017191685     -1.65472497528196      2.40758548884413
  O   2.90280872607964     -1.10900306418560     -0.42201629954728
  H   2.99550503487180      3.15565595591580     -0.58868089030592
  H   1.95090829425033      2.85495482550694     -3.19962816725289
  H   -0.25008789212898      2.09981226609196      2.45118782579063
  H   -1.16892585439124      4.90051398400985     -0.35007043015490
