22
Coordinates from ORCA-job 13964optt
  Br  0.99819528368343      0.57059309521944     -0.08546663279483
  C   2.88510707675524      0.46913394823585     -0.05964127449478
  C   3.71099549314522      1.56354966222498     -0.05080300493296
  N   5.08291148049658      1.35820903591300     -0.03988730968192
  C   5.77051239336056      2.64044303417439     -0.03768608326797
  N   7.02445650793070      2.79836273607889     -0.03244807506023
  C   4.72543536908666      3.66156693781800     -0.04334818107971
  C   5.08616915622936      4.99498371486395     -0.04135231469477
  N   4.34088482403786      6.12889767720927     -0.04362736446878
  C   3.04792686798418      6.16586102634716     -0.04721234191715
  S   1.75638994471225      5.00357138964125     -0.05006205791712
  N   2.21361956535875      3.42919314129491     -0.05435119405657
  C   3.44746442875703      3.00081266405077     -0.05012697733100
  C   5.71406417705724      0.11664661334004     -0.03343627859754
  O   6.93701326312579      0.00164109334191     -0.02521224251760
  C   4.80405080421557     -1.00240533559739     -0.03754009456745
  C   3.45923733114339     -0.82014540227263     -0.05110401555386
  H   7.49360092828547      1.89638802163263     -0.02908831516811
  H   6.15648572934271      5.16974395367743     -0.03702676354588
  H   2.57286861608579      7.14919631798886     -0.04858809891707
  H   5.25359032880053     -1.98454211281716     -0.03000552171917
  H   2.79602043040561     -1.67670121236559     -0.05498585771553
