18
Coordinates from ORCA-job 13968optt
  Br  0.82547621883537     -0.27491376139336     -0.07941450683809
  C   2.68494657160397     -0.10308923299704      0.16342318115250
  C   3.53439660842137     -1.20974809267662      0.11008203029914
  N   3.20085201061693     -2.55816309980402      0.10355295048928
  C   4.31632686120758     -3.20868741788638      0.09165249420980
  N   5.41667327533146     -2.35996188708049      0.08836255180806
  C   6.72889574407144     -2.72881920018613      0.08044163416098
  C   7.90430899925684     -2.03835669912211      0.07081877662762
  N   8.88648470401049     -2.99090185754507      0.06956971680994
  N   8.41376837859191     -4.14389134725410      0.07703441332114
  O   7.00241257696566     -4.02811186509711      0.08440945656354
  C   4.92264647923893     -1.05159528541419      0.08990869047944
  N   5.74041844864281      0.00856616133173      0.06998121799266
  C   5.22654689842594      1.23359619585340      0.08232235763680
  O   5.81486947620564      2.29230910345387      0.05552622130415
  S   3.36215814870379      1.49567676910843      0.15469574030016
  H   4.44245559212411     -4.27857645327495      0.08237914408218
  H   8.07736300774564     -0.98033203001580      0.06425392960069
