25
Coordinates from ORCA-job 13979optt
  Br  1.01332460819531      0.07769510296361      0.24250963300725
  C   2.89050817532921      0.03002945512336      0.06539328821677
  C   3.56846115490931      1.21765858060364      0.16431013272155
  N   3.16414878205057      2.47938909399703      0.37936651005887
  C   4.23888330575482      3.44039903658452      0.18238398440612
  N   4.29013914497135      4.67719385662024      0.67077298879491
  C   5.48199910282347      2.58301010113141      0.24671186452619
  C   6.48773936856271      2.98894032353790     -0.80149318076326
  O   7.73675714196760      2.26500362175626     -0.74897904310792
  C   7.72844240927079      0.93433114255992     -0.92606859444729
  N   8.46020788812173      0.32051155613844     -1.74153142122735
  O   7.00420936087587      0.20249715988855     -0.02285134107295
  C   5.64046654377699      0.08944542104546     -0.08164220019464
  C   5.03187787785334     -1.10592697617362     -0.14848008517930
  C   3.57058437443045     -1.22929884950901     -0.09157873355177
  N   2.93151940068305     -2.35458014302128     -0.15775097071606
  N   4.94200509469946      1.25116463553993      0.00243507155623
  H   2.19043164250272      2.71995568080332      0.30319760738161
  H   3.36006466167251      5.08380860028936      0.72338025424823
  H   5.96487538716448      2.62803339144715      1.24446272032376
  H   6.74861493191458      4.03158623666858     -0.63597230386996
  H   6.04915994409428      2.86851978338737     -1.79461121719495
  H   8.97902153290889      1.00282048832575     -2.28923246199727
  H   5.64072727828767     -1.99370115759137     -0.23902668512825
  H   3.59783088717868     -3.11648614211655     -0.25870581679053
