22
Coordinates from ORCA-job 13989optt
  Br  0.96549550057961      0.07001883000521     -0.56698687147903
  C   2.82512840454972     -0.10437841204430     -0.70259993435469
  C   3.51945912149557     -1.09053622916048     -0.13111182276315
  N   2.99008857601421     -2.16670567191070      0.55353166236120
  C   3.79391879375041     -3.16615982424669      0.67933831233956
  N   5.07520683681867     -3.28717524441932      0.21830612201556
  C   5.62980783770686     -2.17103584377359     -0.17350172818398
  N   4.94069353846949     -1.00941287673276     -0.21927956200025
  C   5.47478234934873      0.31538504857693     -0.32480614144200
  C   4.68569559770403      1.22769682993942     -0.88938981505142
  O   3.43596379136142      0.91951351798261     -1.38867642046278
  C   6.71188284645754      0.70674307887805      0.38700538524642
  N   6.78245033114841      1.98200764596767      0.73465275348993
  C   7.74303865927527     -0.23578962388630      0.63095911195681
  N   7.96976866482033     -1.44363152833126      0.14203784605920
  C   7.08087007634869     -2.17731157331211     -0.57270892976661
  N   7.36698611224105     -2.98578005617653     -1.52555356673834
  H   3.41880235369091     -4.03314225512583      1.21622765426050
  H   4.95166973573728      2.27069543725447     -0.94055457905494
  H   7.69778220189499      2.15249569681224      1.15102784971620
  H   8.54723229661643      0.15410103559020      1.25537119648909
  H   8.37427637397031     -2.92259798188691     -1.68428852263729
