26
Coordinates from ORCA-job 13985optt
  Br  1.14187811905042     -0.15261071291538      0.12473931227729
  C   3.07715458852260     -0.05776837198663      0.11049386166678
  C   3.64583485265898      1.18155881172436     -0.01028614034070
  N   3.01847781245347      2.43644277108632      0.02511411272417
  C   3.78761810058435      3.57532876683601     -0.14021038515340
  N   5.04551950149739      3.69910637036290      0.02784449057945
  C   5.68550715686063      2.47091469513899      0.48478921056289
  C   7.21101554179694      2.42085622305537      0.39243511265206
  O   7.91786712050619      3.40637123825377      0.38785638378617
  N   7.78182271381804      1.15534248187848      0.46982943544407
  C   7.18502632571921     -0.07842688552504     -0.05871230538722
  C   7.37187700647435     -1.38875222572583      0.73571997338090
  C   6.09188424485174     -2.21248427482495      0.41223358695431
  C   5.06448336352213     -1.12797633689464      0.17020973873984
  N   3.71282610788173     -1.25182964460400      0.21323688152876
  C   5.71350140452224      0.04470822394961     -0.05772532538643
  C   5.05512386794543      1.27332882612398     -0.14077507673400
  H   2.02892706725306      2.48583589281148     -0.15628900593880
  H   3.20901959063872      4.45182198364278     -0.42598867712075
  H   5.52309470776777      2.43365400325420      1.58429714569323
  H   8.78795622443831      1.22868311801416      0.39909619448062
  H   7.56633854074242     -0.22135120637248     -1.08335917657856
  H   7.38366271914316     -1.14022106874701      1.79891645116421
  H   8.29628921529175     -1.91779108503309      0.48998276306010
  H   5.80495187492249     -2.87725947411060      1.22902222115053
  H   6.24234223113639     -2.83748211939275     -0.47647078320555
