24
Coordinates from ORCA-job 13980optt
  Br  1.15481152514944      0.24926982638236      0.21018658211414
  C   3.03953591266947      0.05020674449698      0.02990424332318
  C   3.83790958899380      1.18552715604592      0.21294729327829
  N   3.38131547280343      2.51708523148694      0.33022649822506
  C   4.39816040611017      3.42811422029821      0.31979980630622
  N   4.36624311012459      4.70582269731267      0.34258411518261
  C   5.70005580724342      2.62976086625050      0.28063550159889
  C   6.58030776401687      3.01857160826480     -0.89030967593362
  O   7.85983852885820      2.37079967394759     -0.86567001672460
  C   8.01510375364077      1.03021642761872     -1.04709454469232
  N   8.83714146718721      0.55906043029473     -1.87520506869516
  O   7.39706325112427      0.20767676089435     -0.17263035810323
  C   5.99795856568108      0.15020237725969     -0.20177863914007
  S   5.34375840705219     -1.46926764082941     -0.36205307288500
  C   3.53442855309473     -1.25176932792051     -0.18629796399677
  N   2.82423258686707     -2.32477826525543     -0.27491550737293
  C   5.22356932439020      1.21474993974297      0.16199293299456
  H   2.40238885084249      2.75157945904141      0.34730719987687
  H   3.40773934415055      5.04962102899286      0.37110380762887
  H   6.25372182761871      2.81959454270923      1.20563360896711
  H   6.80773704538470      4.08239349110270     -0.85868968632447
  H   6.07309542055449      2.78343449922670     -1.83026133022728
  H   9.25327944340774      1.33026215429042     -2.39102740984758
  H   3.40260404303427     -3.14113390165443     -0.45038831555275
