24
Coordinates from ORCA-job 13982optt
  Br  0.91896830067107     -0.20641462380169     -1.42392613463744
  C   3.12532996218861     -0.09493737575811     -0.01441490390256
  C   3.73756046481585     -1.29562542128672     -0.06121661782987
  N   3.03994834984990     -2.46570222958707     -0.43399984333184
  C   3.54073240951163     -3.71322170077014     -0.33863614826497
  N   3.04524672934093     -4.82100099452075     -0.74901434203362
  C   4.85178254746064     -3.77288459390610      0.40773216482362
  C   5.78338287699305     -4.89997272014600     -0.01193589239247
  O   7.09525223270601     -4.33575505622407      0.12401727891616
  C   7.02536668368780     -2.98090387991275      0.10022065759762
  O   7.98972198065450     -2.27388568736833      0.05587208728994
  N   5.69954955541015     -2.62000650371471      0.14029129408485
  C   5.15442815644215     -1.33679867886224      0.15172264897573
  C   5.85986175790341     -0.19417266379480      0.33409787917107
  C   5.17890271133027      1.07902956577066      0.33453367542714
  N   5.66896406688651      2.24495657138945      0.47759810620124
  O   3.80231492034235      1.02820338317194      0.18928650319338
  H   2.14525387935437     -2.28085127647623     -0.88712829177120
  H   2.14761596459930     -4.67380872823544     -1.20730218757406
  H   4.62396764714011     -3.81654463788307      1.48028454932320
  H   5.71629746667342     -5.77880706627906      0.62088354619561
  H   5.60677783304172     -5.17689132378692     -1.05061545292531
  H   6.92765971156716     -0.21213396745358      0.47850899275119
  H   6.67611379142889      2.17012960943581      0.58314043071259
