20
Coordinates from ORCA-job 13984optt
  Br  1.18254211346897      0.19539971805301     -0.22775478109163
  C   3.05986083913869     -0.03959805420349     -0.15492970772832
  C   3.64324334775888     -1.22754752307944      0.10772388801657
  N   2.77692013250887     -2.28090639791485      0.38623448085240
  C   3.00984663305695     -3.51390613404184      0.57698816668493
  N   4.16363910858684     -4.24292102009231      0.51851279221573
  C   5.40680284492045     -3.76790632356644      0.11979254981367
  C   5.80807923782431     -2.44818146461242     -0.03331124038074
  O   7.11306211172547     -2.48078444277494     -0.41887903577586
  N   7.57006551471972     -3.77837393346095     -0.49527684644307
  C   6.54313601931964     -4.52674318532517     -0.18010414492791
  C   5.11784066708157     -1.22573003815313      0.10314039316828
  C   5.74113256627189      0.04159858624052      0.15722953420584
  Br  7.54359207516455      0.26856033422690      0.70588683591313
  C   5.06536567722056      1.25945250414531     -0.06021992370369
  O   5.46623203691353      2.39947051012169     -0.03577099292141
  O   3.69092722334059      1.10830351635451     -0.39906442197119
  H   2.15563295932827     -4.13980285182495      0.83433796423319
  H   4.08065219199037     -5.22974037161538      0.68641511033816
  H   6.65442669965960     -5.60164342847652     -0.16695062049812
