20
Coordinates from ORCA-job 13983optt
  Br  1.33564024879136      0.10449596039108     -0.54820783397955
  C   3.12919528955266      0.10549236825007      0.00958552828744
  C   3.84927908845995      1.24223430449713      0.00692344519794
  N   3.65442367346763      2.51194098649731     -0.48195225898474
  C   4.88207033289494      3.15208563303570     -0.73649475749653
  N   5.09963180384727      4.20834405818812     -1.38301749439892
  C   5.94267086964730      2.34757984788273      0.07335223321622
  C   6.44077311744879      3.08962869864634      1.30788975307232
  O   5.76136347522920      3.14650213921374      2.33934936848643
  N   5.15298957469333      1.17225846237807      0.40485236139431
  C   5.79647717010778     -0.00470214089546      0.17895471861456
  O   7.05401893396000      0.25102371619245     -0.16745298055098
  C   7.21598070320660      1.68622625114828     -0.37310546717538
  O   8.21704081281428      2.10565482539449     -0.88048335685530
  N   5.22914611811686     -1.15079621316112      0.19746957463957
  C   3.82513373960621     -1.17117460374195      0.31159839269233
  O   3.21841049212450     -2.19526278827784      0.53122066847266
  H   2.78399727370153      2.76898251246839     -0.92144073336513
  H   4.24374809390881      4.61728827981520     -1.75573110816397
  H   7.43800918842095      3.52519770207724      1.18568994689671
