22
Coordinates from ORCA-job 13993optt
  Br  0.91612938971332      0.07036740997573     -0.10319990645470
  C   2.80979334998205      0.02462800562729     -0.08801317981298
  C   3.56023101397455      1.17230405677761     -0.07892578042166
  N   2.95404099711801      2.40353834954611     -0.07951485435332
  C   3.56141507161223      3.67670993356153     -0.07661153539257
  N   2.86588398200027      4.75320304237855     -0.07633169329107
  C   5.00359147497909      3.60979186135252     -0.07452325600073
  N   5.84803541294858      4.65718220615847     -0.07551188563047
  C   7.07486986618385      4.11499234135043     -0.07261195445919
  C   7.06636138740250      2.71079880620310     -0.06893261385458
  C   8.20999128081721      1.87862161566659     -0.06714577330689
  C   9.21704581722204      1.21546665701145     -0.06674247236479
  C   5.68537723452453      2.36670118651762     -0.07040660573326
  C   5.00056382853934      1.13300530705587     -0.06945754155223
  N   5.69250916565664     -0.04499478511205     -0.05720610245991
  C   5.16631551689552     -1.19932269976748     -0.06087991530565
  S   3.44925276725142     -1.60009444802177     -0.08741658034089
  H   1.94621431629395      2.40866070585988     -0.08354361771089
  H   1.86888551442698      4.54051623638359     -0.07820392963068
  H   7.96100251669930      4.73620490599968     -0.07347389070399
  H   10.09273129935229      0.61514674460521     -0.06621840167352
  H   5.79575879640628     -2.08442743912995     -0.04912850954601
