29
Coordinates from ORCA-job 13992optt
  Br  1.23974270463351     -0.22566112104303     -1.90463151855729
  C   3.29467130571453     -0.17509323611601     -0.36643964619747
  C   3.71779344693174     -1.44491615612919     -0.11598306297660
  N   2.82125639640230     -2.52703830998215     -0.13536983274518
  C   3.07946590257548     -3.76639613224392      0.36529649520051
  N   2.31236530619812     -4.78550284494095      0.27522829032315
  C   4.41064329341295     -3.85983107850921      1.11404833701299
  N   4.78821875897618     -5.23734089151567      1.38662079136820
  C   5.20148022070561     -5.97053882195021      0.19260910104661
  C   6.28475564261352     -5.25903225489684     -0.62079904872245
  C   5.86959796003619     -3.82258290689680     -0.93202948755361
  C   5.51698275078811     -3.08533878345451      0.36702109976182
  C   5.09463906862571     -1.66866997584081      0.10513397692251
  C   5.97609768843140     -0.62917364412726      0.05563993304116
  C   5.53754640593192      0.70164857918956     -0.24194231004068
  O   6.20582269382258      1.70468840133428     -0.32281689438522
  O   4.15979459843412      0.82423921835006     -0.44349795239882
  H   1.95303580655026     -2.34147505677556     -0.62918235427462
  H   1.46097002150397     -4.53905975924776     -0.22957064655211
  H   4.23971978975732     -3.36554386182857      2.07647389106540
  H   5.54209478310153     -5.23409814270524      2.06435831435424
  H   4.30890779117916     -6.10951809171111     -0.41907783772285
  H   5.54260564526557     -6.95879268223899      0.50674973312619
  H   6.47920564038251     -5.80858799691980     -1.54546505984254
  H   7.22093409380335     -5.24719941902386     -0.04987293819175
  H   4.99417608342997     -3.82006443650359     -1.59027621737065
  H   6.66313733613518     -3.28323901705054     -1.45297213090935
  H   6.40830212452953     -3.07610218565696      1.00454533407357
  H   7.03403674012739     -0.76677939156521      0.23120164114485
