20
Coordinates from ORCA-job 13990optt
  Br  1.22288429966762     -0.03260610577145      0.80920825764464
  C   3.04929260528649      0.07817603020836      0.36949319844540
  C   3.75203093252148     -1.07743983225791      0.10908890595268
  N   3.15173152205631     -2.29350512251243      0.08414438604978
  C   3.90792293269970     -3.31611520214669     -0.23764417860492
  N   5.22822988182378     -3.34661213990995     -0.36947805091605
  C   5.87564971913926     -2.19496372604311     -0.22944551243445
  N   5.12464393245580     -0.99288044169019     -0.19252373427307
  C   5.67211028634245      0.25577565482299     -0.41962860153635
  O   6.91897176962903      0.27110740299692     -0.95127188228593
  N   7.93322728623949      0.16302880029005      0.06491609404343
  C   8.04236451131852     -1.04235079805039      0.44639492518167
  C   7.29363672817782     -2.24583343458530      0.01984548392142
  O   7.92944280773540     -3.31544934165041      0.00682361041413
  C   4.99014888690436      1.39382257544804     -0.20501527167924
  C   3.61772632534635      1.40288975305987      0.27500778675100
  O   3.01559200165552      2.44388957893949      0.52135684067505
  H   3.39762640632446     -4.26594326169665     -0.37276191019889
  H   8.84444614463277     -1.22389738608487      1.15675283280857
  H   5.47632102004331      2.33490699663365     -0.41526317995887
