28
Coordinates from ORCA-job 13996optt
  Br  2.58757756765558      1.12600506828490      3.11551208226253
  C   3.14228445991047      0.34675985810403      1.47360284365141
  C   2.76852380027480     -0.96779580132455      1.18526866753557
  N   2.04354068205359     -1.79539168295569      1.90049050930308
  C   0.86774052340531     -1.72836995385013      2.50141306961039
  N   -0.11480112808234     -2.72409705748620      1.99720506535108
  C   0.24142307750445     -3.15419061864166      0.73803245470900
  N   0.53226893010459     -2.34655733763807     -0.21038837443081
  C   1.49727775864427     -3.05819157887526     -1.03148728161249
  C   1.08626591503093     -4.53545777722771     -0.86961885707586
  N   0.62324852360950     -4.50517672751926      0.51699855190454
  C   2.89840035767991     -2.86021042173978     -0.38357093522984
  N   3.25547116943030     -1.48829087536867     -0.05684480111862
  C   3.98193199223552     -0.74542993290685     -0.99800379136548
  N   4.29757164499522     -1.15113804828401     -2.19063205509164
  C   4.38583108855149      0.56819118936790     -0.56997310405962
  C   3.95800853304251      1.08551504510931      0.61381823820792
  H   0.41287826341985     -0.81679024928283      2.87848463448820
  H   -0.28102349739071     -3.48716805148091      2.63912650600714
  H   1.48651206790690     -2.71584912966611     -2.06653423373991
  H   1.92076873445610     -5.22918448145504     -0.99109705424414
  H   0.28855516318036     -4.79539949517180     -1.57480871876799
  H   -0.04305989899272     -5.20703949467507      0.80382472461164
  H   3.67490166079986     -3.27559975489473     -1.02694763953019
  H   2.89675932727193     -3.41826715834959      0.55023819996949
  H   3.90392536966795     -2.05787250884859     -2.40826256408344
  H   4.98903826703440      1.13516334563981     -1.26227928624387
  H   4.24117964659994      2.09183363113665      0.89943314898191
