23
Coordinates from ORCA-job 13997optt
  Br  1.42921442517993     -1.56559878406866     -0.46328326471150
  C   3.20978894097066     -0.92252190867127     -0.37075178028167
  C   4.29692582052192     -1.73413019015398     -0.18771232339804
  N   5.54366439092158     -1.10886745213728     -0.09961436602600
  C   6.59396554091351     -2.09765283462045     -0.08472229000180
  N   7.83178819509979     -1.87721448330933     -0.26370234986312
  C   5.93241552281877     -3.39543287377780      0.06371049578183
  N   6.63665135745929     -4.47873831689183      0.23819093101602
  C   6.03599819390757     -5.70454911054015      0.32027309251258
  C   4.73258352929713     -6.06461009103270      0.18366676871748
  N   3.61709175196051     -5.29067257760586     -0.08662624695878
  N   3.45820652150252     -3.96344128979798     -0.16089653748869
  C   4.49429998990756     -3.16456233135964     -0.07686157616683
  C   5.69071349720659      0.26758128613457      0.01446161279100
  N   6.71884296053422      0.92559849456742      0.41400550061567
  C   4.47635164062893      0.98312638353714     -0.36190087326695
  N   3.33035863492369      0.41792869483794     -0.51708361137510
  H   8.01855459415128     -0.89752145051608     -0.45009032740563
  H   6.71718036050271     -6.52596514905176      0.51391946017109
  H   4.48179499119579     -7.11492869508504      0.26775773603603
  H   2.73633317380094     -5.76931250569747     -0.12298181988979
  H   7.45041438607553      0.31718905756200      0.76470245733800
  H   4.55886158051951      2.05929612767825     -0.46046068814579
