24
Coordinates from ORCA-job 13995optt
  Br  4.02379074412944     -0.57422192631577      3.22164202535720
  C   4.83583123238625     -0.78021848033208      1.51982507889077
  C   6.13299918834829     -1.38694595082540      1.38671969304522
  N   6.50428696637732     -1.57379444016229      0.08840242560276
  C   5.87107814728154     -0.98532359179142     -0.89358639052574
  N   6.47374111981184     -1.10471550899616     -2.18702266798752
  C   7.79260329737438     -1.60400458384371     -2.13939520179765
  N   8.73551937843781     -1.12724375538606     -1.38332620394641
  C   9.53908787339095     -2.20306775295019     -1.02882077015701
  C   9.15139484856051     -3.29799986132151     -1.75524952245770
  N   8.03278305270078     -2.91038002445506     -2.46283889712724
  C   9.94981523638961     -2.17555606190982      0.40857536213992
  C   8.80989608013146     -2.46414702081661      1.13936381882051
  C   8.24175637341773     -1.90176362509178      2.30206220490962
  N   6.91965747642113     -1.60721695878453      2.43742211960528
  N   4.73289163500795     -0.29949047581751     -0.83479293820047
  C   4.21794721680495     -0.26110259000282      0.41547825593385
  H   6.27090269397992     -0.31108910385133     -2.77573739856470
  H   9.48568565288755     -4.32049469483792     -1.72651550204052
  H   7.37148473503107     -3.50820879225001     -2.92580594610733
  H   10.69285232797977     -1.46914812180168      0.75974872759090
  H   8.08525935512981     -3.03140405923484      0.57770765959349
  H   8.86695435578419     -1.55285334806901      3.12141034007459
  H   3.26378101223564      0.24239072884754      0.52773372734818
