23
Coordinates from ORCA-job 14000optt
  Br  3.55303648987992     -1.54766503650785      2.69640622168927
  C   3.43163102461811     -0.44185966574760      1.15477257274032
  C   3.04979374934651      0.86679175001362      1.25573446321532
  N   2.30859027935851      1.54770991689544      2.27061777343873
  C   1.22690793493616      2.14452952078000      1.63163960950583
  N   0.88816734909738      3.37777609174608      1.61459470976876
  C   0.37020487590834      3.55646845826576      0.28638299740634
  N   -0.89760768109380      3.43567534385920     -0.05812115518596
  C   -1.06093979874923      3.10342880555080     -1.35836689440055
  N   -0.15110435678018      2.59307466701535     -2.15249411772061
  C   1.13618538588009      2.60502002293022     -1.67849648208283
  C   1.41876267502018      3.48826999676929     -0.64089662324774
  C   2.03341975407533      1.54178210629260     -2.03280790222393
  C   2.86135644310994      0.91469883076096     -1.10661121030105
  O   3.19100482625062      1.59847371520252      0.07394725451766
  N   3.33869588376512     -0.32062805846657     -1.23782500649922
  C   3.72779865201883     -0.95445898767461     -0.11548644612712
  H   2.85273239164211      2.21583363616803      2.80672625153408
  H   0.77580621136417      1.42707915745619      0.93892403048288
  H   -2.07327952187253      3.17175824397041     -1.74627249638147
  H   2.42556043379937      3.65992752974715     -0.30774230991829
  H   1.79382947796855      0.95273346410874     -2.90715170911214
  H   4.18244752045645     -1.93141950913575     -0.21747353109829
