24
Coordinates from ORCA-job 14021optt
  Br  1.81412171431984     -1.67177654015244     -0.74282577148028
  C   3.64273006446534     -1.16140242126319     -0.59397318899663
  C   4.14675550922712     -0.81543625186503      0.67313619428751
  N   5.23834295795720      0.07350710343439      0.63544165231171
  C   6.24742278854645     -0.09090708967232     -0.33328845456727
  N   7.37292504211337      0.52034237873071     -0.29676046982365
  C   5.91642513475347     -1.04574330619046     -1.39799696722968
  C   4.55990903095480     -1.30721811762421     -1.61415410805433
  Br  4.03279804564464     -2.13489804553613     -3.27155400497139
  C   6.84539523847337     -2.20817718442428     -1.53486555024004
  N   7.29233122152636     -2.78797017141092     -2.56806722524591
  N   7.17365608039313     -2.68986389744574     -0.23645713338183
  C   6.31711329551256     -3.29637366853480      0.47734790675174
  C   5.00321180667516     -3.85585612731243      0.09602631736917
  C   3.86993964014909     -3.68470291784889      0.79925998700229
  N   3.71837730625168     -2.87770635142264      1.91624587479211
  C   3.96530520752801     -1.60464415566631      1.85740007471496
  H   5.57851932972357      0.39736283199373      1.53059250256578
  H   7.45637108825350      1.07955870978359      0.55174072713350
  H   6.99239788401850     -2.26675588018308     -3.38921017538631
  H   6.60420318622605     -3.47797578387520      1.51747618369456
  H   4.96962430937643     -4.46328503191159     -0.80157540349348
  H   2.98109548400661     -4.23469894214921      0.49956679057300
  H   4.08102863390365     -1.09637913945352      2.81849424167445
