25
Coordinates from ORCA-job 14034optt
  Br  1.17011913462843     -0.59635384603449     -1.17855220408332
  C   2.98071800641891     -0.29223478068043     -0.69684155836528
  C   3.53611177366733      0.98206241458989     -0.59799253034137
  N   4.95904130145751      1.03587284960016     -0.46739762549907
  C   5.67214113273747      0.01114066215669      0.24944445347834
  N   6.83323942965991      0.13487498297367      0.78903719180806
  C   4.99731585437515     -1.25142809726906      0.21329143190434
  C   3.73806751636259     -1.40341601842743     -0.32836445276610
  C   5.60637305774835      2.04243434903920     -1.16560144242386
  O   5.25633008081766      2.46791786206655     -2.24267320731883
  C   6.64074285365455      2.85163608193616     -0.38326287952408
  O   7.79129019247747      3.03193813291675     -0.72303790144113
  N   6.07424706233873      3.43529499915683      0.70162375901590
  C   4.70301900892965      3.26215965504091      1.19361921213431
  C   3.58511306064166      3.45520105332918      0.15396726289547
  C   2.83947859178783      2.22988620434422     -0.41995078475751
  O   1.65030625075789      2.40091647230619     -0.67992220473331
  H   7.23709555475682      1.05981325188007      0.72432734673471
  H   5.55408680136219     -2.09321318281844      0.59779204765434
  H   3.29754338114561     -2.38819620267660     -0.41193296258514
  H   6.70285894429185      4.01722680193633      1.23365431677559
  H   4.58560432843144      4.02279836925188      1.96523945449473
  H   4.59878828663167      2.29018036203313      1.68404755690260
  H   3.95392587023947      4.06037013438882     -0.67945285011137
  H   2.77944252467976      4.02611748895980      0.61493857015200
