27
Coordinates from ORCA-job 14038optt
  Br  1.46536196378182      0.35385097971543     -2.77256134938585
  C   2.78659772124377      0.02702861448605     -1.45934973482328
  C   3.41242197557420      1.08924990592047     -0.79408459115347
  N   4.71828328924397      0.85403749360122     -0.38085906207860
  C   5.33115329799688     -0.39512793223668     -0.28293613149966
  N   6.55091174120688     -0.56416186930321      0.11004919535616
  C   4.43522622922588     -1.49207139159281     -0.55285337769989
  C   3.20523454775580     -1.27276273876735     -1.11536146601739
  N   2.22758220869654     -2.30667426174746     -1.17643085895565
  C   1.38500636833761     -2.29332965987340      0.04089172418423
  C   0.45073709851223     -1.08771241456495      0.21635193554490
  C   1.02849428254132      0.20232282998513      0.83578767822929
  O   0.70319452787303      1.30298313774494     -0.01630550750986
  C   1.58278256637150      2.35012128772303     -0.16753282573651
  N   2.89436875814123      2.25202586913282     -0.41092838353721
  C   0.98514673003869      3.61290390861723      0.00456298651356
  N   0.47347746601448      4.64466199454080      0.14385075603837
  H   5.14319128217413      1.63052781740352      0.10558289444344
  H   6.99110619515348      0.33155238091679      0.31139869210389
  H   4.73464390181812     -2.47248018748160     -0.20911925437844
  H   2.70052691585531     -3.20276518565620     -1.20925679105119
  H   0.76395117809762     -3.18979202985512     -0.01460403883776
  H   2.01581630170414     -2.38579370891826      0.93857654190751
  H   -0.37259810137339     -1.42853976356386      0.84912155343455
  H   0.01635269167536     -0.82829680731749     -0.74850831402162
  H   2.10492911143250      0.12865116536875      0.99055399472474
  H   0.56609975090685      0.39759056572224      1.80896373420576
