27
Coordinates from ORCA-job 14030optt
  Br  1.26485051206468     -0.65800487262498      0.11115921569506
  C   3.14971787073997     -0.94859400513620     -0.11436736420130
  C   3.63529090030771     -1.28704113938093     -1.38854150713123
  N   5.02649448190940     -1.17212422660244     -1.50111349365942
  C   5.91468326938807     -1.46626528617784     -0.46341767027571
  N   7.17924432288719     -1.65143378554071     -0.63983916257754
  C   5.28747340198899     -1.57778616579312      0.83211068678324
  C   3.95910409834146     -1.07293730947460      0.98750311886867
  C   5.79119049699638     -2.57110615673452      1.75490696027998
  N   5.69314965143078     -2.58635061013196      3.03705466074522
  C   6.40015117912102     -3.85283639884256      1.17084943939573
  N   7.36731525699680     -4.46464319732971      1.71806281102231
  N   5.85978616073010     -4.40739653874181      0.00758898016729
  C   4.77970191290205     -3.94788543670402     -0.71258705504530
  C   4.54872948520904     -4.09056702954538     -2.03166873740935
  C   3.44155377637172     -3.38949943178215     -2.68912152197509
  C   2.95601356398595     -2.17031417602968     -2.32010988085202
  H   5.38610273277770     -1.36871435066786     -2.42394461262552
  H   7.41063402101011     -1.63030221127449     -1.63251781392733
  H   3.52833528812845     -0.96755233465304      1.97636290924316
  H   5.33340387715800     -1.68573091117229      3.35343034932048
  H   7.64292652549466     -3.93988102817566      2.54475176084360
  H   6.50850655303929     -5.02735654577547     -0.45499132582750
  H   4.05936504663405     -3.39738276610281     -0.12384294520674
  H   5.21505141868499     -4.70365272411457     -2.63350672861664
  H   2.93414619061609     -3.90774239321125     -3.49826008955283
  H   1.99407800508529     -1.85389896827990     -2.71195098348122
