23
Coordinates from ORCA-job 14040optt
  Br  2.93094524617951     -4.19151677069093     -2.50220491288729
  C   4.05837058922096     -3.92812684255239     -1.01421269051429
  C   5.57776244948964     -3.94063453708233     -0.93203591809666
  N   6.19225769432357     -2.66597123965298     -1.27576611000820
  C   5.86194964880860     -2.03651664095186     -0.07623411760774
  N   5.92707884607278     -0.84529623445851      0.33185884088436
  C   5.31458405657905     -3.32092563333400      0.56133982811594
  C   3.83674533675189     -3.40753460652841      0.18433155597991
  N   5.81229027784153     -3.65072900784996      1.84163596842734
  C   6.14257491124843     -4.87911876896388      2.08447794293801
  N   6.02154151025777     -5.93977629350763      1.28970499443145
  C   4.93986890522000     -6.43497446572041      0.72033504481459
  C   4.90725185361707     -6.80912045566187     -0.63669783931667
  C   5.71440103368044     -6.21408304372886     -1.60810018266826
  O   6.32177917290861     -4.98909855417938     -1.42225032397221
  C   3.95174831688634     -7.77190979627598     -1.07748582657062
  N   3.19127442617519     -8.55677028496376     -1.44612678968719
  H   6.06322113160168     -2.23447188380964     -2.18285087441603
  H   6.31086917740237     -0.23705108438499     -0.39236612353883
  H   2.96006247032812     -3.02450715434968      0.68474660453836
  H   6.68420417083401     -5.03083116754095      3.02233088888205
  H   4.02226086386353     -6.55735101637999      1.30347110026326
  H   5.85695791070881     -6.61568451743152     -2.59990105999127
