30
Coordinates from ORCA-job 14044optt
  Br  1.63638484258583     -1.23757559895327     -1.47311330378306
  C   2.93976089079937     -0.36494165227147     -0.42766411882808
  C   3.18346100375629      0.97109102742288     -0.59414728655975
  N   4.29427105449215      1.52553387014556     -0.03083874603100
  C   5.18611829032741      0.84385175938210      0.80483173795291
  N   6.28979452216665      1.34148949422409      1.24042707151160
  C   4.67752411338677     -0.43522362693165      1.24765160977840
  C   3.57744313691713     -0.99429492192061      0.67655031916581
  O   3.02472539872367     -2.10459256598784      1.24801358054190
  C   1.67232857278826     -1.96768878194249      1.72505256481950
  C   1.28425849224918     -0.60177492039069      2.30972205581362
  N   0.82368696009348      0.38653969522830      1.34063907088801
  C   1.48514105520330      1.69022071195160      1.36827968799589
  C   1.52650742431495      2.50302188320500      0.06162715224746
  N   2.22424273311761      1.83566432720452     -1.11004113111140
  C   2.28309751916762      3.80311078684794      0.35747778013167
  O   3.19835781729928      4.20296794291633     -0.46700099669550
  H   4.34149455417096      2.54939058847821     -0.11118037160170
  H   6.42416488103309      2.28311385334905      0.87775681754537
  H   5.14016635877515     -0.89528814084101      2.10797502083491
  H   0.97275524556335     -2.23096627524563      0.93082470178069
  H   1.60520752805002     -2.71839880045904      2.51420261802555
  H   2.14309484092613     -0.20736266844538      2.86037720840637
  H   0.50966209942258     -0.80810326022660      3.05902212707366
  H   -0.18109738792732      0.47428342291270      1.34096403102115
  H   2.51158761154499      1.52364593939011      1.69763768506636
  H   1.03964391278236      2.36824293405862      2.11069851621961
  H   0.49861889801666      2.66486092142750     -0.28444903506425
  H   2.69963216032173      2.64404804413414     -1.52977795661352
  H   2.31996546993118      4.10813401133702      1.41248158946778
