23
Coordinates from ORCA-job 14046optt
  Br  1.80733547466310      1.79856126558521      1.77850222059415
  C   3.46322481049209      1.56814048407557      0.82804315075390
  C   3.46739491553149      1.30411584428132     -0.59473561013807
  N   4.69843590167598      1.13303797999557     -1.24225465525966
  C   5.95327818318713      1.28537025289790     -0.57348578554452
  N   7.02405962370435      1.63579914965429     -1.15396793937811
  C   5.66858229279572      0.94504268037371      0.83763795017100
  C   4.70914799167269      1.83642845816488      1.33954804472620
  O   5.13992652219992      2.99591844332381      1.99295524066123
  C   4.84802560295476      4.29015701439491      1.74892072784814
  N   3.93722383588647      4.90372650402317      1.14116405105189
  C   2.80749697904412      4.47493122531313      0.47839370070609
  N   2.79655238409273      3.92961374549304     -0.66055615860353
  C   1.50535710442966      3.52053340895643     -1.10735630585473
  O   0.55281978602285      4.29581504019520     -1.19567683926467
  C   1.42683206241315      2.12846201159083     -1.45717810663861
  N   2.43431263881030      1.25739688519925     -1.40748699626486
  H   4.64211725034058      1.41027825064780     -2.21449193387040
  H   6.85507393765182      1.82364624956848     -2.14365256091927
  H   5.24892776975631     -0.05878792749109      0.83025737662925
  H   5.61499288768975      4.88157855934150      2.24473252267210
  H   1.88546106168050      4.71008217924601      1.01503170427213
  H   0.49742098330446      1.80515229516907     -1.91134379834964
