26
Coordinates from ORCA-job 14043optt
  Br  0.61724642303055      0.47473449853120      1.41803296617983
  C   2.10139908615741      1.40197119444968      0.65640590117377
  C   3.31114922039724      1.80841615699929      1.38424604085106
  N   4.47089152879502      1.56296908336853      0.54948150511763
  C   4.42911686898088      1.74954596423266     -0.81914794200437
  N   5.41672142576355      1.56740046187824     -1.63067553693373
  C   3.13112460974396      2.19256277980600     -1.34401884276403
  C   1.97738263186633      1.96640335119700     -0.65618984476916
  O   0.77897731117228      2.30956157448084     -1.22833576950079
  C   -0.01753106660056      3.28774413882605     -0.53601218472109
  C   0.44564089396302      4.76008968160406     -0.72725823246957
  N   0.81165905201231      5.53120207726450      0.48884085591415
  C   1.96962955237542      4.93554528445385      1.04519704633178
  N   3.17518016733641      5.31136997416858      0.69971159447976
  N   3.92115897175449      4.21676816068253      1.09813857679861
  C   3.09830184038966      3.22956152008638      1.53701704487458
  N   1.87190737099376      3.74721888202498      1.67880666205634
  H   5.23207206850413      1.00396442335911      0.90056246586064
  H   6.24900818771629      1.29091868266695     -1.10847418722048
  H   3.11206912117564      2.62986910802844     -2.33120458516788
  H   -1.00782924877385      3.15735281916628     -0.97291750951181
  H   -0.06216081421234      3.05108238008709      0.52593983478966
  H   -0.34555965601979      5.31814075102089     -1.23168474438985
  H   1.31985859122344      4.76901218163008     -1.38072014840881
  H   0.05628474350951      5.45657843615386      1.16229982360345
  H   4.80630111874520      4.05301643383282      0.64895920983029
