27
Coordinates from ORCA-job 14057optt
  Br  1.01659276826749     -0.04410494453304     -0.34577780311288
  C   2.91504489704042     -0.02334821171434     -0.12158578591007
  C   3.59727190799827     -1.25813246469432     -0.01793713963241
  N   2.96158033026685     -2.45930121268090     -0.13311170353081
  C   3.68627855387398     -3.53061227030930     -0.19316791141655
  N   5.08768384663298     -3.52877393767518     -0.20925580942925
  C   5.71732437004827     -2.44329514546602      0.54551290931343
  C   5.00935706779542     -1.15292525318903      0.23796113334607
  C   5.65133741317159      0.05315258480985      0.28440825614756
  C   4.94953783428271      1.27029657191144      0.12567698497286
  C   3.54702684800172      1.19129705593035     -0.06755419502127
  C   5.64303523608779      2.60349139109590      0.10765103358631
  C   6.20596302392466      3.10216855730543      1.45038145886880
  C   7.11134720602924      2.18387525197237      2.14046306366560
  N   7.80591419708581      1.50635594827708      2.75178966224238
  C   6.69956297504375      2.52294311593596     -0.95981789116095
  O   7.89425825330322      2.45805842609947     -0.74118597441721
  H   3.21101029041919     -4.49664654509604     -0.32361053023339
  H   5.48179751044403     -4.43560104433429     -0.00805463895121
  H   6.77165672861726     -2.37497489034810      0.27294872342978
  H   5.66257679373527     -2.64155748225500      1.62679570043639
  H   6.72307491620997      0.07390290530985      0.46223565668540
  H   2.96181773221013      2.09856712216266     -0.16104133614734
  H   4.90778107128484      3.34565955480738     -0.21854370057041
  H   5.37097502901188      3.29139857627205      2.12668216550013
  H   6.75046487296993      4.03846209317925      1.30023232111183
  H   6.29572832624318      2.41664424722649     -1.98309464977280
