24
Coordinates from ORCA-job 14066opt
  Br  1.14492780181050      0.67472241924383      0.41916276000190
  C   3.28414370556213      0.18978203806677     -0.65768922573307
  C   3.88062776258753     -0.99695169900144     -0.44451948910997
  N   3.33369133619028     -2.26879774877583     -0.43839006945882
  C   4.30171735729256     -3.22629904309710     -0.14157671144045
  N   4.14559148205133     -4.49659094232478     -0.00597791146942
  C   5.55168298503743     -2.48531141838612     -0.00576660103762
  C   5.29166271374009     -1.16029510066151     -0.16996738651471
  C   6.04832943925583      0.05419875090103     -0.05873387094580
  C   5.37569978668597      1.19905398514774     -0.24821327116555
  O   5.98643308238570      2.42176054915278     -0.15925745058410
  C   5.27858004869160      3.42039336402814      0.40177213657268
  N   5.77015943189167      4.57541714269539      0.43289991981143
  C   4.94194864350215      5.58946193581457      1.04709490063345
  C   5.65332510484081      6.26301733864739      2.14485910006804
  N   6.18639942132507      6.80556313668447      3.00153830284687
  O   4.08949016575671      1.30733926829380     -0.56910067174562
  H   2.34082994919306     -2.42903942574761     -0.40825432185393
  H   3.17015481544537     -4.75405537120585     -0.14081623584984
  H   6.48869570227447     -2.96185712137639      0.23160016757439
  H   7.09277108602507      0.08832198530353      0.21102410677618
  H   4.30186576669910      3.12795712186760      0.79362620792620
  H   3.99354601125892      5.20819732252548      1.44470240317705
  H   4.70672640049626      6.35601151220398      0.30498321152070
