25
Coordinates from ORCA-job 14068optt
  Br  1.28818491008684     -0.08787920767534     -1.05783542748846
  C   3.06558389149075     -0.01582958535201     -0.41246424936723
  C   3.76899668729332     -1.14859634429414     -0.12186155309144
  N   3.18558817897790     -2.38559520987811     -0.25897614738701
  C   3.87440924588254     -3.43069993041243      0.11309716801964
  N   5.10151703704395     -3.46581449194178      0.66148770076551
  C   5.70935709343508     -2.28380183441764      0.74089737579456
  C   5.16291215139389     -1.06610261313828      0.30232643602496
  C   5.89995841610688      0.13936340642749      0.30091568035080
  N   7.31944720965762      0.11415791558387      0.39566151140243
  C   8.08380062457199      1.17083054554121     -0.31720502591221
  C   9.12859123003776      0.12717789515378     -0.72359906456661
  C   8.06634955626889     -0.91663781602122     -0.36624771744159
  C   5.27625530836532      1.42287987714139      0.41933193718644
  N   5.76744352307452      2.52559965704929      0.87857815348413
  S   3.61126548297837      1.61184942215283     -0.17012564173083
  H   3.39009705375227     -4.39598300288152     -0.01732334392414
  H   6.68210078765293     -2.28024360417528      1.21697226085920
  H   8.42375157251657      2.00495990141404      0.29529758267484
  H   7.52246955966488      1.56239926720340     -1.17199646889967
  H   9.98180089349338      0.10399019721734     -0.04798576305912
  H   9.47442214833418      0.14919021825134     -1.75407513424587
  H   8.39072814976087     -1.78261638704745      0.20718901243318
  H   7.49642545434179     -1.25776443594995     -1.23766389078914
  H   6.69654383381736      2.36016616004918      1.25160460890764
