24
Coordinates from ORCA-job 14064optt
  Br  0.97689035987542     -0.13051431195201     -0.02473462436801
  C   2.86653330046461     -0.04560297175406      0.16230045578713
  C   3.64123590814131     -1.20260967539726      0.11394439010748
  N   2.99291672812186     -2.43858310625890      0.18902906451854
  C   3.68285251338496     -3.49872027572090      0.00235233766037
  N   5.03037249133810     -3.53034873984750     -0.26591267788996
  C   5.83020607398128     -2.39577580168172      0.16355810212546
  C   5.04241688643299     -1.11861886159368      0.02298439396113
  C   5.76842030895184      0.06946547662397     -0.06288498452252
  C   5.23830243050907      1.38358710709782     -0.06561082001069
  N   5.85302655815337      2.51688744024118     -0.16919724423932
  S   3.46781995216614      1.59212088252546      0.12381679884281
  C   2.99269700915035     -4.78931179038242      0.00993789788016
  C   1.66530159287302     -5.03003275985003      0.10976538253314
  O   1.48228351050430     -6.38173636998810      0.08959515066990
  C   2.71913192567967     -6.88877873581364     -0.02711438128561
  N   3.65481606591331     -6.01073917647740     -0.08014765899064
  H   5.44829443877389     -4.44635095810654     -0.21155251764904
  H   6.72804591458459     -2.34262969514098     -0.45694663063629
  H   6.16811123275917     -2.52152654254110      1.20815476803916
  H   6.85104555095037      0.00725529179510     -0.14044396086911
  H   6.85257947433537      2.33901863206041     -0.26637193140385
  H   0.80258658671200     -4.39650973999660      0.19510674696295
  H   2.80711318624293     -7.96194531784106     -0.06662805722320
