24
Coordinates from ORCA-job 14061optt
  Br  0.51818258545002     -0.51522403615656      0.31458996745035
  C   3.02446397845222      0.06442426498360      0.05550300371264
  C   3.74987647384928     -1.06574341020415      0.12250280774277
  N   3.34398873825673     -2.37680556810204      0.25367335942471
  C   4.43062632827962     -3.24255260927036      0.26846146088227
  N   4.43522516480671     -4.52410032041331      0.37208195079375
  C   5.61102903848361     -2.38316765648555      0.13797367991260
  C   5.19016712418908     -1.08982431195056      0.04927369262732
  C   5.82483443752291      0.19028515259265     -0.07702940570075
  C   7.31484635040174      0.29503148230709     -0.11736923471439
  N   7.88566081946290     -0.19986176948979      1.13535320570451
  C   8.94567523947624      0.38421521570021      1.70313930770783
  O   9.58380096090960      1.31273978016085      1.26140084722623
  C   9.32407433588920     -0.21660833644887      3.01070887075927
  N   9.65102952006549     -0.64904767486760      4.01936904320859
  C   5.03281785631940      1.28050433931412     -0.12446016300461
  O   3.69601558145163      1.24642778133555     -0.07409907442042
  H   2.36775820650357     -2.62158896530204      0.33402535291925
  H   3.48502055626740     -4.87978925258202      0.45063206303122
  H   6.61405684005187     -2.77956765995734      0.09520076326651
  H   7.64774383640245      1.32430702911691     -0.24040105202649
  H   7.71718386589985     -0.29617919586387     -0.94559014715790
  H   7.40490073575144     -0.95331311378439      1.60940485645551
  H   5.41302142585665      2.29043883536750     -0.21134515580081
