22
Coordinates from ORCA-job 14065optt
  Br  1.28170292556195      0.11578490807446     -0.06502262739757
  C   3.15432620734644     -0.06506616998483     -0.09719375501532
  C   3.77198494371679     -1.24465157574304     -0.09653684626422
  N   3.30901308547855     -2.53686048886537     -0.07957082984696
  C   4.38701980892903     -3.44535854513434     -0.08861210417938
  N   4.30147680267136     -4.72712123846915     -0.08071293673450
  C   5.58366907588550     -2.63056372786367     -0.10872766308720
  C   5.23390038760909     -1.30226067280526     -0.11529992438411
  C   5.89999529500932     -0.06602098163803     -0.13512372309879
  C   5.17862574458069      1.11781732113030     -0.14048231954461
  O   3.79937154419265      1.11444440666514     -0.11896365660549
  C   5.76185187953077      2.40657757365449     -0.17036182773501
  N   7.12811491259797      2.51056993538520     -0.18558369135341
  C   7.53486848082151      3.75400321791284     -0.21682648836031
  N   6.79046568474054      4.85931869108656     -0.23417331557077
  N   5.44626626453379      4.67252796503689     -0.21583726271117
  N   4.94156085561189      3.50220669243397     -0.18504229465978
  H   2.33984074582484     -2.79980167515860     -0.06826807055738
  H   3.32846266725637     -5.02531274083332     -0.06654605663887
  H   6.57378189768438     -3.05336749963942     -0.11814472508467
  H   6.97573177764684      0.01316729708726     -0.15197951119291
  H   8.60996901276968      3.92396730766792     -0.23099036997757
