24
Coordinates from ORCA-job 14070optt
  Br  -0.20893166918571      2.27081466705116     -3.98850726832808
  C   0.61012868725130      1.52002840160119     -2.43866459235252
  C   1.97839714576636      1.55051376589094     -2.36875245070947
  N   2.89535193970969      2.03535977933911     -3.27021783658115
  C   4.20214287150139      1.91334614396450     -2.77289758752917
  N   5.29365544975465      2.29061199431053     -3.36138990871093
  C   4.05802093118361      1.28686591227066     -1.48730527908643
  C   2.71200084363121      1.06689318740053     -1.24006627302238
  C   2.01236512825607      0.46946289482467     -0.11976384248384
  N   2.55893242540984     -0.02919652592278      0.95390181002156
  C   0.58113541058403      0.41535240243666     -0.28846929291242
  C   -0.14668732476551      0.95626714342207     -1.37274931395856
  C   -1.59639195639860      1.22176639840581     -1.27226325924091
  C   -2.55192787502420      0.77629987590770     -0.42379214847780
  N   -2.41111572240053     -0.27182873816351      0.52695524508599
  N   -1.11877010398908     -0.74346422205438      0.28618187510127
  N   -0.30644096686904      0.10763460412586      0.73953595817946
  H   2.65166391870307      2.47937279331407     -4.13821038822399
  H   5.08231843473752      2.70294317112175     -4.26829380991692
  H   4.89875231207643      1.04758956609278     -0.85703831711160
  H   3.56758422492147      0.11102477243471      0.90778560833342
  H   -1.94751007267791      1.99251031429835     -1.94703229571790
  H   -3.54116614018600      1.21584763217201     -0.45054924849300
  H   -3.08250789199006     -1.01601593424440      0.36660261613538
