23
Coordinates from ORCA-job 14073optt
  Br  1.30517584551822      0.12244652978888     -0.18868422830107
  C   3.18538639790540     -0.08519179855891     -0.15403407260389
  C   3.78023005838473     -1.28054497352386     -0.13722727404440
  N   3.29190324965705     -2.57440008510598     -0.15643174231034
  C   4.36722450959734     -3.47609517386305      0.00498223105785
  N   4.26813022332958     -4.75235529778469      0.12214230790183
  C   5.57447950322366     -2.67244727423901     -0.00141752250805
  C   5.23537501295774     -1.34701685735053     -0.07958014922374
  C   5.92791392197250     -0.10179813561310     -0.12087097585468
  N   5.28827270594797      1.11452834035505     -0.18745233718267
  N   3.91805743370955      1.07154207592290     -0.06114282599693
  C   7.34145350238508     -0.09846191679707     -0.13833146783487
  N   8.16179420034695     -1.10281846140136     -0.10642991037606
  C   9.48846222093935     -0.54704229550752     -0.15296329920021
  C   9.29134309924527      0.95328500901553     -0.22269235051029
  O   10.10238848399231      1.83347094822567     -0.28486787151669
  O   7.96169354961774      1.16524043752788     -0.20590176844221
  H   2.35832850337362     -2.80473091940402      0.13904679631344
  H   3.29230998023982     -5.04038378317035      0.07767695672244
  H   6.56571572688470     -3.08370514737236      0.05312073781471
  H   3.47595766221242      1.92167702470186     -0.36829134302185
  H   10.06128172486917     -0.87781813989460     -1.02669746138693
  H   10.08812248368973     -0.79538010595134      0.73004757050461
