25
Coordinates from ORCA-job 14076optt
  Br  1.07005896817198      0.14909949305738     -0.44674636982934
  C   2.93165187078923      0.10847768339278     -0.05109566083714
  C   3.69996903105204      1.26714279548322     -0.14754342394366
  N   3.10634472125821      2.49056931787083     -0.53513674168140
  C   3.87776767187989      3.51311481582629     -0.58259019332873
  N   5.19909809912120      3.52804090914672     -0.29744322459244
  C   5.85847533655155      2.34286797216295      0.07841883518451
  C   5.06878238534646      1.19083558890774      0.14755026717113
  C   5.67027246929086     -0.09168141397568      0.52900450299506
  O   6.88319943875084     -0.16583358911836      0.77665686739937
  N   4.84771692345177     -1.18119561146349      0.60219830257736
  C   3.55347499826942     -1.08516688152385      0.33849098040251
  N   2.80609013422333     -2.25291278370748      0.50211546242435
  C   3.48258128811282     -3.52432617477000      0.56135208638472
  C   4.06977226916337     -3.77330115074197      1.96078608896502
  C   4.57850902872239     -5.13497020296003      2.09712536045210
  N   4.95169209902117     -6.21653153536845      2.18525306189558
  H   3.46071112333409      4.47351421968617     -0.87734920787931
  H   5.70542388877217      4.39084942719161     -0.37713361753180
  H   6.91252081443545      2.36686733480011      0.28868553514802
  H   1.91280890078529     -2.24875389771311      0.03897537501388
  H   4.30055698781331     -3.58040126914117     -0.16261482529029
  H   2.75577201687092     -4.30480221333784      0.33259170123842
  H   3.29936018014803     -3.61171816858902      2.71618704256798
  H   4.87438935466393     -3.05478466511531      2.12326179509403
