23
Coordinates from ORCA-job 14081optt
  Br  1.38504668295244     -0.08966153509032      0.73555827400887
  C   3.42423867946943      0.09590803150398     -0.50130246915628
  C   4.11888758387891     -1.04936663843629     -0.39809005274854
  N   3.69320362920989     -2.37205544951756     -0.46053593374364
  C   4.74542196365706     -3.23931009180701     -0.17134069106460
  N   4.71688183655851     -4.51920604947968     -0.06538620265204
  C   5.92949954004877     -2.39589856210438      0.00210723923872
  C   5.52021734771110     -1.10966068621254     -0.10965471111141
  N   6.15729320699128      0.09689134004900      0.06417217411137
  C   5.52150533051514      1.29888870174106      0.01868075066467
  N   6.23795625704796      2.35445896577405      0.26946596695300
  C   5.64213021565282      3.58691238786932      0.18786692471841
  N   6.18954921295405      4.70670438030482      0.46016614754470
  N   4.32481391297133      3.60187445984534     -0.26348264316610
  C   3.55240556924782      2.51802462390397     -0.58989835175768
  O   2.45606685711502      2.61358289197624     -1.06423373059836
  N   4.18114386122819      1.27933524701916     -0.31526801157132
  H   2.72106597781523     -2.60098658820900     -0.32240669590025
  H   3.77215481357985     -4.86748727999655     -0.21471948203771
  H   6.90536083578710     -2.78571841242395      0.23827239199298
  H   7.12731514931199      0.15004839282726      0.33120916672979
  H   7.14454357935090      4.52974777994379      0.75713997821521
  H   3.89929795694510      4.50397409051927     -0.41032003866979
