23
Coordinates from ORCA-job 14083optt
  Br  1.15707248818449     -0.07560637398455     -0.05733216783284
  C   3.05877123759294     -0.08589240443630     -0.05060141060136
  C   3.74038171657149     -1.31520799954314     -0.02448059177380
  N   3.06764760375988     -2.53229171981547      0.00440423177102
  C   3.74776001905867     -3.60148310585316      0.03057872322048
  N   5.14161893117825     -3.68235203296022      0.02887796837831
  C   5.97646163041586     -2.47766723965038     -0.00992928915377
  C   5.14110817790373     -1.21908246778322     -0.02710272243134
  N   5.82758379044099     -0.10265698952460     -0.04517982974286
  C   5.15896469185479      1.07447187382596     -0.06249748659537
  C   3.73923357122994      1.09682181511683     -0.07049981679082
  C   5.85273057476158      2.34522416631944     -0.07751542009046
  O   5.20958601532227      3.43180170109970     -0.11396590671646
  C   7.32930338912157      2.45641980101145     -0.04320032360641
  O   8.18284836765978      1.59658756069945      0.04032189862749
  C   5.75630282805308     -4.89526305698126      0.06242086706245
  O   6.95420261260256     -5.05766385319516      0.06034285272772
  H   3.24780568786084     -4.56499161305985      0.05920246267486
  H   6.61733115371610     -2.51235438397693     -0.89295693630649
  H   6.63963654899146     -2.47369325505929      0.85686398152917
  H   3.23995412120224      2.05392308735831     -0.09068429279071
  H   7.61254856294779      3.52965918403196     -0.09585281950054
  H   5.04414627956963     -5.73570269363954      0.09378602794173
