22
Coordinates from ORCA-job 14085optt
  Br  1.01216572540680     -0.13573229947927      0.06770497974086
  C   2.90529602688652     -0.10401662856538     -0.01283855097172
  C   3.61261023293080     -1.33059707863572      0.02172897419958
  N   2.99773480011677     -2.52890416291039      0.03892229641015
  C   3.72178279624715     -3.61522543239010     -0.05948847108941
  N   5.09610049056985     -3.64778870292812     -0.11497095882715
  C   5.86259293582676     -2.43976947376684      0.21510914870466
  C   5.03446919402605     -1.19746132237033      0.01382169324975
  N   5.68137615286649     -0.06722779716170     -0.08583388605262
  C   4.97243223993650      1.07928125614528     -0.16130696757262
  C   5.73458191528484      2.30810314985659     -0.28839680901875
  O   5.26401670407078      3.42918291482129     -0.37071323203103
  C   3.56652783265895      1.08783705750944     -0.10759911608430
  C   5.72608950598393     -4.84460508441113     -0.34827104784877
  O   5.13394452827451     -5.89381013799912     -0.59415537344979
  C   7.17922713009767     -4.80515142041474     -0.25924637865654
  N   8.32908963429684     -4.83484781653735     -0.19704008215161
  H   3.25272342562214     -4.58390263360461     -0.13760641879716
  H   6.75302751255090     -2.38599382337179     -0.40852607113430
  H   6.19218408077297     -2.49984689865017      1.25838299226014
  H   6.82795954368952      2.14336380944169     -0.30815436896472
  H   3.04306759188318      2.03311252542247     -0.14752235191466
