22
Coordinates from ORCA-job 14099optt
  Br  0.90361096473630     -0.90720309741818      0.04128157373013
  C   2.73619522616304     -0.46685232113036      0.03477501562233
  C   3.14016845989754      0.84769284740185      0.01375698310943
  N   2.12967168894109      1.78363069123042     -0.02829291326716
  C   2.21317964454305      3.07915695881269      0.01444477719338
  N   3.19531633008201      3.99507756631164      0.10353057319342
  C   4.48248482253664      3.67253841902191      0.10688064199318
  C   5.14923218140170      2.44702505555857      0.05324960301382
  C   4.57042798238577      1.13427712301885      0.02172643816787
  C   5.46694742104633      0.03892471623181      0.01369446399286
  N   4.97245345806465     -1.25869672095468      0.00500862286972
  C   3.64096968505037     -1.60902437865318      0.04663842150647
  N   3.22846464459622     -2.82524398818850      0.08133695358655
  C   6.81076532623713      0.22754218528925      0.01729218291948
  O   7.37313059531180      1.46687005529905      0.02522761646698
  C   6.61209558186199      2.60419470617393      0.04747809028901
  O   7.22255285981899      3.64653955116526      0.05805911128770
  H   1.23145380743781      3.55471903567143     -0.03347510827682
  H   5.15096664631894      4.52550627652170      0.15386516304172
  H   5.63995865059568     -2.01183061294379      0.01814585174113
  H   4.01714610186658     -3.47002333273143      0.07890082581428
  H   7.54180792110628     -0.56682073568825      0.01147511200452
