24
Coordinates from ORCA-job 14096optt
  Br  0.97347683587938     -0.23023989982362      0.21899617625721
  C   2.85888792722742     -0.11463473387330      0.06831632748944
  C   3.62104622118905     -1.27547222510314      0.00887341321648
  N   3.32316328111067     -2.61690685020967      0.04986160866820
  C   4.49340294136403     -3.38902774387341     -0.03357455975947
  N   4.56315802026506     -4.68685981559859     -0.03585910749363
  C   5.57322539315143     -2.43758027363254     -0.11357181042668
  C   5.01731830411837     -1.17898131176152     -0.08916713423614
  O   5.65164557606059      0.01738249088140     -0.12174262278626
  N   4.87594937411394      1.21134727935115     -0.12175177338731
  C   3.56038466995311      1.08893540888312     -0.02131933119329
  C   2.84026248035852      2.40723276301944     -0.00823752099597
  C   3.69732347229927      3.63872293048559      0.28857997286415
  N   2.95608799698028      4.63654459880616     -0.46758644580187
  C   2.28915036128868      4.03687817211460     -1.51200320829110
  O   1.79527786570185      4.58282330325116     -2.46127478753819
  O   2.25579013868784      2.70797550531556     -1.30085407768027
  H   2.39181725181730     -2.99286665885815      0.05905215720274
  H   3.63078331560879     -5.08929821654132      0.03327197591493
  H   6.61269482559600     -2.70708843914255     -0.17675908742429
  H   2.00489866272859      2.35564008869487      0.69330608039927
  H   4.71404569268770      3.49993151559355     -0.07593052065622
  H   3.71264043894097      3.85908146938750      1.35450559379675
  H   3.35056895287112      5.53946064263372     -0.67213131813847
