21
Coordinates from ORCA-job 14100optt
  Br  0.98267104723648      0.86482302839693     -0.23731771935452
  C   2.77940386713498      0.31789485632975     -0.15219816168677
  C   3.14574825849212     -1.00338792639815     -0.07848192884164
  N   2.24037534708159     -2.01464263137586     -0.07728424468617
  C   2.56227267562812     -3.30022244917212     -0.00325336476434
  N   3.69429483900395     -4.04435616991842      0.09394962455757
  C   4.94006471398677     -3.59736919048506      0.14441644679608
  C   5.38338705056937     -2.26985840950859      0.10226449458804
  C   4.57136843203858     -1.14388550270572     -0.00145092321024
  C   5.38696733573912     -0.00633921106628     -0.01090370578428
  O   6.69508996897954     -0.36635043276955      0.08236614862203
  C   6.74746464999390     -1.77528165181618      0.15668385552372
  N   7.85141635412977     -2.39036262978656      0.25177380656492
  N   5.02490067422955      1.23775355826922     -0.08991126372312
  N   3.67279262489120      1.35408479867409     -0.16240828363377
  C   1.38629032759615     -4.15500213791682     -0.03068880376536
  C   0.41852207457472     -4.86800440351837     -0.05571388835575
  H   5.70617165542159     -4.36323027316893      0.23270389639081
  H   8.62179192750123     -1.72651323882266      0.26296635503298
  H   3.33085023272592      2.29550776940296     -0.22459890992127
  H   -0.43684405695469     -5.49725775264367     -0.07291343034891
