24
Coordinates from ORCA-job 14107optt
  Br  0.98052588780916     -0.24766970632139      0.59307677329086
  C   2.85858580715304     -0.18550453122760      0.36507887423594
  C   3.63019819411732     -1.30917030020288      0.20170514082551
  N   3.06927114136670     -2.58724702252738      0.36887773452863
  C   3.81657845321560     -3.57185516255780      0.07320166117252
  N   5.10871376561200     -3.50330859581033     -0.40562558318697
  C   5.89661218453932     -2.30086829681125     -0.11678207719840
  C   6.62786136152298     -2.45083483721820      1.20875333037574
  C   6.26563864349425     -1.97103896992160      2.43022505477290
  C   7.14876690655623     -2.37365618022684      3.47096773596338
  C   8.17110739781811     -3.15315690570373      3.02478361530370
  S   8.06951069389454     -3.39382773015754      1.33179525640957
  C   4.98411072218184     -1.11433555786301     -0.12587344347656
  C   5.49352977880499      0.19258582133780     -0.27615535989717
  C   4.68274242115100      1.32941105393899     -0.14649653727050
  O   4.95342911943970      2.50896121270874     -0.27528058505636
  O   3.30919185183058      1.07980298878984      0.19270793897498
  H   3.41650665143321     -4.58067918309089      0.14834452998619
  H   5.62180809622520     -4.36939272272561     -0.34237953749729
  H   6.64841861456049     -2.19325275318182     -0.90688597206600
  H   5.39912704316975     -1.33627062065010      2.55749293506152
  H   7.03205773970631     -2.08641903997286      4.50656355150684
  H   8.98245994563847     -3.58036586332386      3.59165159755379
  H   6.53524757875888      0.36909290271942     -0.50674663431289
