22
Coordinates from ORCA-job 14112opt
  Br  1.18087387632747      0.90009459813771     -0.32765209647652
  C   3.02363181768321      0.49581049238438     -0.21007233179352
  C   3.49386551384953     -0.76109206404479     -0.14950983639273
  N   2.68113114048460     -1.88820786338440     -0.16963411690520
  C   3.03232845430573     -3.22806817186821     -0.10664984035475
  N   4.15987526426922     -3.85118488104675     -0.01827044549844
  C   5.41326669918719     -3.34868775789388      0.04519839175637
  C   5.77936565415927     -1.98372185166179      0.02928073325229
  C   7.07985344625869     -1.38459097475668      0.09878431452732
  C   8.36782426788370     -2.02901360433967      0.20102478129412
  O   8.58018512409126     -3.22833383821309      0.24721189299315
  N   7.02757174758926     -0.02996282806388      0.05875873461784
  C   5.72457795636025      0.26576301001175     -0.03663245323209
  C   4.91750613604432     -0.87634649913233     -0.06004476499213
  C   5.16091848915543      1.59894280433267     -0.10607081224257
  N   5.73131664274668      2.72730921642207     -0.09827560681440
  O   3.77423750876671      1.62348417388872     -0.19418080744033
  H   1.69163525235200     -1.71134204188520     -0.23439873360644
  H   2.13862983501278     -3.84620982010339     -0.13978228874127
  H   6.20185269670658     -4.08393953283800      0.12267080838039
  H   9.20770726830452     -1.30837672700613      0.23791636084004
  H   6.73284520846115      2.55267416106100     -0.03067188317109
