26
Coordinates from ORCA-job 14117optt
  Br  1.08718120804762      0.07954723338678      0.05536664285832
  C   2.99854606306295     -0.01781043084366     -0.01475683534234
  C   3.61101959578117     -1.26192470644879     -0.00813852814887
  N   3.17416032430381     -2.57306108201827      0.05135264968432
  C   4.26548969206652     -3.43683661419955      0.13142519613052
  N   4.24045552003463     -4.73338664672891      0.26336558267277
  C   5.44628053987247     -2.60931330314172      0.03759749781432
  C   6.81911882454052     -3.18889780703745      0.08096451231098
  C   7.02323616653277     -4.38936525645538     -0.86900659690646
  N   8.46511631595355     -4.36944724966038     -1.08062088156560
  C   9.05474604216135     -3.17537981940772     -0.83170924355518
  O   10.22858296026163     -2.90933883327998     -1.00179601260304
  C   7.95944860717881     -2.24799182358888     -0.32770515686114
  C   5.01528897676841     -1.29237534713267     -0.03090188488516
  N   5.64245535362751     -0.07734510450594     -0.16961080240908
  N   4.96441809086198      1.16560425115394      0.00016911393796
  N   3.65425307108614      1.11604929922785      0.01364001351172
  H   2.22414897673191     -2.84433838847897      0.23256125657816
  H   3.28145141039624     -5.06970596331024      0.30247311382565
  H   7.03944353390030     -3.56557670473865      1.08886323660608
  H   6.47611692394281     -4.22993589287529     -1.80303398525158
  H   6.67955938676175     -5.31867462326440     -0.42476833177295
  H   8.98639527620434     -5.10691478863282     -1.52429598488481
  H   7.65815480178075     -1.61428553865492     -1.16885372625620
  H   8.33800507641997     -1.60909871585745      0.46885095029399
  H   6.60792726171988      0.01680385649355      0.09356820421765
