23
Coordinates from ORCA-job 14118optt
  Br  1.09856260049638      0.13930286873846      0.14515846002711
  C   2.99263573133552     -0.00332026286811     -0.04096583745540
  C   3.66375586638676     -1.17059768624228      0.18802790673431
  N   2.91643324613605     -2.32771146713810      0.53360574023238
  C   3.02355586413423     -3.61825694487473      0.09630684516002
  N   2.23256943707438     -4.57645205350196      0.40501393850552
  C   4.20655161916901     -3.91603459485400     -0.79161263224922
  C   5.46818138026714     -3.55573266876417     -0.09885163608769
  C   5.86191029252357     -2.30870412478560      0.33517031794886
  N   7.13389868894946     -2.42915594339548      0.83557096218588
  N   7.51454373863287     -3.66070429533682      0.75069273790359
  N   6.51727799862050     -4.35291772332392      0.19704203454347
  C   5.08746704884457     -1.10045613732018      0.23598327781027
  C   5.70327133989971      0.16907560867166      0.15254099894328
  C   4.99392228587228      1.35736982579044     -0.04397180787852
  O   5.37339698962000      2.50707778489308     -0.13662747027212
  O   3.56355523509546      1.20243984977230     -0.19461354734633
  H   2.07338428306359     -2.13036444122436      1.05284970028047
  H   1.48583264162492     -4.25144219933708      1.01916229502561
  H   4.12333130534445     -3.30499270669536     -1.69815794180134
  H   4.15968113954378     -4.96808451370340     -1.06269631386252
  H   6.61820611720460     -5.34367282995339      0.05857110849460
  H   6.77707515016067      0.25033465545304      0.22180086315777
