27
Coordinates from ORCA-job 14114optt
  Br  1.22487882700202      0.64243687576567     -1.42880373170784
  C   3.02399638541695      0.13732707373051     -0.96844040912646
  C   3.94556777974187      1.11367525891476     -0.58524379430720
  N   3.62978397278238      2.42788359354242     -0.97171512833300
  C   3.96203759216060      3.50776920902858     -0.39924683808253
  N   4.77485453905211      3.77315619075858      0.68199548731826
  C   5.77639185815253      2.89209283518459      1.24736484873885
  C   6.21238153017338      1.77650822916482      0.27713739684990
  C   6.69125789467704      2.35122984135624     -1.09212933793947
  N   8.15350089989741      2.32309197515180     -0.95376416645115
  C   8.41272788016254      1.53428978745733      0.15307631634044
  N   7.43745092300332      1.21294884632156      0.89115502786793
  C   5.10845131622906      0.74199006500500      0.12782059229954
  C   5.30882074080151     -0.52064385935705      0.69701459288641
  C   4.48230554818178     -1.66013772085363      0.53925530661282
  N   4.56423440259722     -2.82238606395617      1.10401893949007
  S   3.20277244144766     -1.57190839238777     -0.71260918221934
  H   3.53553238834994      4.43024322763707     -0.79946755886875
  H   4.90798913400883      4.75281426165088      0.85921427440611
  H   5.42606209666807      2.39827823767591      2.15657301231067
  H   6.64980926157244      3.49878206995627      1.50866988937938
  H   6.34193540498490      3.36700256210353     -1.26551512293360
  H   6.34620256098450      1.71578757042654     -1.90858361806786
  H   8.70620034480870      2.15766229260250     -1.78081270781404
  H   9.44035745991168      1.26349210537995      0.37647397021493
  H   6.19575358716902     -0.67273663408162      1.29774391322295
  H   5.34674323006240     -2.80964943817833      1.75881802791298
