25
Coordinates from ORCA-job 14120optt
  Br  0.99924753161362      0.50310392608697     -0.36780569338419
  C   2.86136922856058      0.06417321125032     -0.32957492993768
  C   3.77749232453706      1.11564511699719      0.00735920166665
  N   3.21534149964333      2.20422363789892      0.63566136603246
  C   3.57138638378522      3.41169903972553      0.77956039557128
  N   4.60151558449690      4.12237445631517      0.16052184057959
  C   5.48162755527960      3.39794078644169     -0.71938805521376
  C   6.12628063368805      2.13896472215924     -0.10304831620605
  C   7.52445746263592      1.91099666122686     -0.72404689640896
  O   8.36710595785877      1.58480168957926      0.39443780942671
  C   7.65834251655384      1.99990985317468      1.47211486169161
  N   6.46922002022030      2.37989997935032      1.32485113983399
  C   5.18458844674175      0.93614357473373     -0.20773801774221
  C   5.72830670391965     -0.28556498415677     -0.47824678994518
  S   4.86625396538471     -1.78028292483573     -0.63039059267856
  C   3.11097476335789     -1.25829129589732     -0.70157166826338
  O   2.33706500546652     -2.14755096668766     -1.03932316025890
  H   2.96883400193209      4.04401595291384      1.43102808221937
  H   5.09280874159334      4.72040933628528      0.81153367062020
  H   6.26050330603032      4.09408583549176     -1.03500966609371
  H   4.92468273386226      3.09561066902184     -1.60858204927664
  H   7.91200548530875      2.83537536793065     -1.16069254379875
  H   7.57937436476755      1.11542761814325     -1.45780451077901
  H   8.19769581911264      1.96007610150520      2.41073555667915
  H   6.79551996364922     -0.42018736465426     -0.57858103433402
