27
Coordinates from ORCA-job 14132optt
  Br  0.79875313681917     -0.06146346028681      0.02583454445762
  C   2.69508546363279     -0.05053283358213      0.11731840464325
  C   3.35229719998283      1.15182715826348      0.45330135738270
  N   2.57825058198383      2.23725041177696      0.77502942475105
  C   2.93537417934101      3.48305608627011      0.76692955124759
  N   4.03411561808814      4.10370952339707      0.34237240023356
  C   5.29064741129687      3.48316678017942     -0.05180746783426
  C   5.60122455726576      2.27690428603785      0.83224728670273
  C   4.76359508280908      1.08293010709962      0.49407389404476
  C   5.36501476399816     -0.12944029636133      0.19531054749101
  N   4.72716292752847     -1.25516048022484     -0.11217300959825
  C   3.39676886708999     -1.21579645813374     -0.15286731816190
  C   2.71470652292446     -2.52501888931508     -0.49643864342613
  C   2.21850194282888     -2.57387157298170     -1.87107346045845
  C   1.82681105045378     -2.61428862022949     -3.00260505365076
  C   6.36495303249753      4.55514185712538      0.04059456969265
  O   7.58997949281266      4.23723126846326     -0.02010060572374
  H   2.18933476788904      4.17660764939463      1.15515231318837
  H   4.14361132717742      5.07412926132471      0.61793933535620
  H   5.17776309793126      3.10794364863545     -1.08616574856803
  H   5.45323767615074      2.58785194069823      1.87285014674075
  H   6.66150724976213      2.05391061089011      0.70326820982128
  H   6.44935899060419     -0.18685212387620      0.21247704226316
  H   1.88052912353726     -2.70839039064414      0.18378332766232
  H   3.45667909272967     -3.31119233588851     -0.35674474659259
  H   1.47850614155310     -2.63234718614870     -4.00624997576136
  H   6.01423070131174      5.53669405811640     -0.34425632590355
