25
Coordinates from ORCA-job 14135optt
  Br  0.55845889298654      0.76811864454295      1.63598647513031
  C   1.58700857766846      1.38508891389495      0.11447741892807
  C   2.85625521795325      2.02674579781274      0.26758462804050
  N   2.89386698809014      3.31218762818540      0.85156924256511
  C   2.08216981623950      3.67287051792891      1.75092772266876
  N   1.44800488215366      4.96673048815396      1.69400917977338
  C   0.17479585937183      4.56445434361637      1.07461249851992
  C   0.13214648074025      3.97379833230043     -0.12105328727272
  C   -0.96004994809885      3.14554772803137     -0.66170618263603
  C   -1.03164527257269      2.81656895827326     -2.13179839799278
  C   -0.55758301629612      1.76185219878850     -1.18328208064673
  C   0.89233272755214      1.36078776052599     -1.13809631398725
  C   1.61776388723589      1.17628573216029     -2.26336775911719
  S   3.32863782710682      0.83805295242216     -2.19214137149229
  C   3.87508274924258      1.81379308422363     -0.71211492019783
  O   5.01523674246805      2.22775283075511     -0.72864303947282
  H   1.57578598759475      3.01019198539254      2.44841757879411
  H   1.97973259802111      5.51874736240456      1.02496422821834
  H   -0.68419934944749      4.58080784962129      1.73724319200284
  H   1.05697818244426      3.94455778343832     -0.69235472980315
  H   -1.89491619732704      3.17872586760526     -0.11564297221997
  H   -0.28837608995811      3.27726680774514     -2.76922924332109
  H   -2.01127209438977      2.70935140291671     -2.57872429924768
  H   -1.27028271745729      0.98212515934424     -0.94148565450072
  H   1.19706726867805      1.31958986991583     -3.25115191273310
