25
Coordinates from ORCA-job 14133optt
  Br  0.93482898758658     -0.13656270100011      0.28497536706873
  C   2.81975714097106     -0.08648431316933      0.12233811877447
  C   3.53852223559921      1.14624230422379      0.18140119249475
  N   2.86923023893631      2.37262882427146      0.35799674432118
  C   3.44153089532546      3.59754001162215      0.16033660146856
  N   2.89532790591904      4.73169818758999      0.40640811344227
  C   4.82915981666416      3.52936369909526     -0.42470497939033
  C   5.65065986921817      2.40300351918014      0.19780671490601
  C   4.91238568430580      1.09334423954259      0.09889422201023
  N   5.63215550313096     -0.02589487396660     -0.05416897398989
  C   4.95375053820716     -1.21342815919674     -0.10277090728126
  C   3.55274685232259     -1.24594982274581     -0.01437673403789
  O   2.86994971354023     -2.43404931378871     -0.06393957568886
  C   3.60921523967358     -3.55937072124498     -0.20130067612908
  N   4.86147467691662     -3.64049719907005     -0.28524042114827
  C   5.66298473393521     -2.46295811768516     -0.23963976303830
  N   6.95048751239707     -2.55467286303553     -0.31856875918273
  H   1.91439338799207      2.33555461230483      0.68143538283840
  H   1.95369242155743      4.60626146975348      0.77923111023573
  H   5.28915326344361      4.50805757439107     -0.30556892888580
  H   4.71654606081945      3.33170984984842     -1.49609038030131
  H   5.85339446360151      2.62802014866852      1.25133597149525
  H   6.61343520948629      2.29324535469482     -0.29990476313926
  H   2.96636465187284     -4.43243039140535     -0.23003607090913
  H   7.17585299657750     -3.54437131887815     -0.40684860593345
