28
Coordinates from ORCA-job 14134optt
  Br  0.72804999865545      0.00336206246359      0.45891043676768
  C   3.11458611643307      0.00479593904994     -0.29061517981816
  C   3.76894863851609     -1.19951688331467     -0.26741170059435
  N   3.07353990070707     -2.42497701983335     -0.35914094777505
  C   3.61407622629611     -3.62910802103219     -0.00742539821503
  N   3.01459222813942     -4.75988367984082     -0.00913126189034
  C   5.05704346169816     -3.55938246881495      0.43753208376844
  C   5.86104533725481     -2.50313097657975     -0.31768453424836
  C   5.16944939368218     -1.17188896837302     -0.22421337276106
  N   5.88985938084397     -0.07386238707172     -0.11381756201569
  C   5.24715342751743      1.12979489965035     -0.06230752254951
  N   3.85241132452313      1.11006116814595     -0.18590828083665
  N   5.80951093910083      2.28330335839359      0.07026499154742
  C   7.24372688852098      2.26473450320805      0.17506188242466
  C   7.70911288574473      3.71213397588523      0.36045234402636
  C   9.16203701031606      3.83458161911469      0.45906999443884
  N   10.30371515996540      3.92148817069970      0.53191799423437
  H   2.06695394509913     -2.33233091284622     -0.42238467262376
  H   2.03982631041132     -4.65152978435545     -0.28920245651181
  H   5.48410378209713     -4.55433387058609      0.33709454023728
  H   5.04881483212975     -3.30575656616357      1.50257317935895
  H   5.92786082326515     -2.77780378435263     -1.37607783076875
  H   6.87546997434356     -2.41019732661788      0.06687817711508
  H   3.40187721253191      2.01556778559827     -0.18570006451746
  H   7.72239176520902      1.84127057750980     -0.71694046511612
  H   7.59410712627685      1.66025527770594      1.02081641673106
  H   7.25844804984692      4.12620303751631      1.26350251785629
  H   7.36328786087385      4.31415027484094     -0.48111330826432
