26
Coordinates from ORCA-job 14142optt
  Br  1.04940488567694     -0.19851771624430      0.98071269940795
  C   2.89153929521321     -0.07996092225185      0.48823415230693
  C   3.62064693072163     -1.29100425194117      0.29190879085560
  N   3.04663496045964     -2.51175542100658      0.36070158533933
  C   3.75769974355576     -3.55082348226070      0.02143983873500
  N   5.05420145292916     -3.45371746748994     -0.52979778212273
  C   5.86647338347764     -2.35892395877853      0.02622110313245
  C   6.36694053485694     -2.70019539224869      1.37023451359863
  C   6.75602008401140     -3.05473707054634      2.45084239789822
  C   5.02505741539979     -1.10386040105837      0.04207496198251
  C   5.58596712605175      0.13515062001626     -0.10565361263143
  C   4.81915450305189      1.30951737298177      0.01877559110677
  C   5.39954955074508      2.64432148416493     -0.19750520330723
  O   5.24421080357068      3.14087555480026     -1.59753224446037
  C   6.15216126661940      2.75662043761517     -2.46767392168558
  O   7.15641632303321      2.13469135961284     -2.24581254200886
  C   3.44848143298426      1.15867181126418      0.34729937985006
  H   3.33227074211813     -4.54492898796517      0.07275632643177
  H   5.54562576717247     -4.33633281494135     -0.48618724684336
  H   6.72964033221841     -2.20190364767328     -0.62505999242119
  H   7.08254985295488     -3.33392493959920      3.42249661863051
  H   6.64945458421092      0.21881748326554     -0.31415337323471
  H   6.46701968646763      2.67468998994634      0.01724774814681
  H   4.87872154021789      3.41727916753383      0.36626600258462
  H   5.87292836217834      3.09927244090059     -3.47578772728898
  H   2.83222944010289      2.03767875190378      0.49695193599726
