24
Coordinates from ORCA-job 14144optt
  Br  0.93014987141942     -0.49341827435547      0.24089973263489
  C   2.79986043063540     -0.19280473400382      0.26738691618355
  C   3.70376335405320     -1.22169557258089      0.09754634816795
  N   3.19024091767427     -2.53065036247510     -0.00515812718774
  C   4.00258274055609     -3.46003350840287     -0.30016169274041
  N   5.34598577495950     -3.31104636210351     -0.53595604399953
  C   6.03212535460683     -2.14492852520924      0.00344134421116
  C   6.57989733224777     -2.43175317202253      1.35245179268973
  C   7.00815443663855     -2.68041269594209      2.44597811800858
  C   5.08771205307352     -0.96278965443814      0.02896896105272
  C   5.65527983273443      0.32802336318748      0.10002110677830
  N   7.07663055162839      0.47251190348705      0.14520280028580
  C   7.96112077897965      0.29329311900774     -0.85717867925645
  O   7.73607627549295     -0.15738896163450     -1.96078311450142
  C   4.95288738979682      1.54539444830395      0.27435951557835
  N   5.40813521732996      2.75665044270296      0.36389582095344
  S   3.17757517105270      1.49646322715900      0.45564283353523
  H   3.62591518402319     -4.47180839854959     -0.43477877328458
  H   5.88835926557661     -4.15905579154294     -0.55610867972682
  H   6.87000596874296     -1.91970956483131     -0.65809374877339
  H   7.37003164547505     -2.88238054273323      3.42470989286529
  H   7.46374023174283      0.87756950892824      0.98885634640868
  H   8.98295431543221      0.58151629166012     -0.54646672108519
  H   6.41281590612727      2.75845381638874      0.20232405120185
