23
Coordinates from ORCA-job 14143optt
  Br  1.20919667998095      0.04471123889426      0.34649702298971
  C   3.06247276170029      0.02038632266485      0.02512233710960
  C   3.72692253100851     -1.16011060773666      0.05349752387876
  N   3.28201935253584     -2.44214457745057      0.25077681605421
  C   4.34438713215913     -3.36316032710742      0.20316642733453
  N   4.27182711775880     -4.63364787823574      0.35716696180716
  C   5.53031747368209     -2.55469738690328     -0.05448511613190
  C   6.84077409870132     -3.05324828129709     -0.19249357604832
  C   7.97088226110805     -3.44990456578356     -0.31975048986487
  C   5.14839167670794     -1.22351299737560     -0.13207056639843
  C   5.81685961594823      0.00261959024883     -0.32090989498661
  C   5.08698099846692      1.15740679768752     -0.32727904226067
  N   3.74073431555369      1.19000232867276     -0.17556918796879
  C   3.04155412345108      2.50257347894725     -0.29873621247065
  O   2.12550786163597      2.59248308327166     -1.12423964012852
  C   3.54479293194618      3.51535340227432      0.56844585456592
  O   4.47450692153543      3.39647503834020      1.39241550662682
  H   2.32589661968426     -2.68636703072003      0.44095100008351
  H   3.31222730306948     -4.92413922711192      0.53025229200496
  H   8.96249908901997     -3.81360423129178     -0.42964245371725
  H   6.88817020616487      0.04281544461677     -0.45201165333272
  H   5.53889068967656      2.12918259146620     -0.45232493606621
  H   3.01518823850426      4.47252779392906      0.43322102691977
