23
Coordinates from ORCA-job 14152optt
  Br  0.09428658656855     -0.77566549708418     -0.08359521763001
  C   0.64994815996836      1.10049352953761     -0.22139046354797
  C   -0.31451738912935      2.10153259282075     -0.21663584118817
  N   -1.48384660236581      1.89804968002592     -0.92986925322588
  C   -1.84066168598715      1.44563842528359     -2.16550397031176
  N   -3.06196059184017      1.86552396829117     -2.25216895869604
  C   -2.84341095852764      2.45977534918395     -0.89352233834464
  C   -2.96768084499526      3.92858460039414     -0.83267665287242
  C   -2.04093879972771      4.76709823878821     -0.28545305593955
  C   -0.76996851127100      4.52076871603698      0.32042240094135
  C   -0.05265539579889      3.33625897961638      0.39382098311880
  N   1.12019587454229      3.35300804702995      1.17556812282624
  C   2.04852195248928      2.36438642358374      1.25249050292457
  N   3.06191300689443      2.44852803234158      2.01542681423661
  O   1.85508108040095      1.29951701629338      0.42912412318879
  C   -2.41481730796451      6.16323142753452     -0.28589628601051
  N   -2.71090067992867      7.27445089491227     -0.27526781733524
  H   -1.23011974632210      0.86806305258157     -2.85156466433211
  H   -3.44567988301738      1.93550141511329     -0.14494463013764
  H   -3.88466672727217      4.33737535396155     -1.23421606231365
  H   -0.31020318456709      5.38064002989818      0.79165278546931
  H   1.28961567649159      4.13896158108258      1.77990204240620
  H   3.62846597135950      1.61327814277276      1.91329743677371
