21
Coordinates from ORCA-job 14166optt
  Br  1.28332081954463     -0.59362079147715      1.18356863574455
  C   2.73979028870083     -0.04523354070508     -0.06384836857930
  C   3.16625045520237      1.29092170574955     -0.03211266419004
  N   2.50313037111071      2.52454314848005      0.00171640828186
  C   3.45802426298774      3.36667771123006     -0.12390203392527
  N   3.35744855942721      4.74579806382159     -0.21799793768316
  C   2.12947040569939      5.30161381965037      0.33266186295429
  C   2.17438969103720      5.43391293241236      1.80114027757692
  C   2.26474300500686      5.53051184906687      2.99039575303645
  C   1.81545110651318      6.59405372948613     -0.29348628464147
  C   1.54841869457258      7.64593646716587     -0.79610907110876
  O   4.71135695010008      2.86542192595351     -0.23140905012469
  C   4.51889616324911      1.49578284975968     -0.15345935291577
  N   5.52248760755153      0.64400533707999     -0.19545455942098
  C   5.14481582187287     -0.64837548239062     -0.13438839625781
  O   5.86195566528612     -1.61553763704618     -0.10686029038962
  O   3.73992342139631     -0.95696217512726     -0.13180675067006
  H   4.19598513672621      5.22090226097542      0.08903905633985
  H   1.34098248351545      4.58570492889482      0.08167264626930
  H   2.33994906055780      5.59857588742317      4.04876130018191
  H   1.31121002994171      8.57736700959673     -1.25012118047819
