23
Coordinates from ORCA-job 14164optt
  Br  1.06862692836796      0.08399032665012     -0.54480811918501
  C   2.92412682788343     -0.11041986987553     -0.31268089227309
  C   3.57251021170958     -1.28721531942891     -0.22857689099511
  N   3.14402741929700     -2.61602774920135     -0.37720758359012
  C   4.16300381680541     -3.49820548747628     -0.11076147646783
  N   4.15732306681116     -4.76479798740807     -0.04767622325472
  C   5.43973355611026     -2.66988788408394      0.15802887622266
  C   6.02324682531147     -3.00894720635392      1.55756953737460
  C   5.02900846397851     -2.82106600044519      2.60771695379937
  C   4.18964988568600     -2.66518417015087      3.44837530291859
  C   6.47158658547625     -2.98594225970817     -0.84426657516778
  N   7.29232891361962     -3.21070308437780     -1.61360256394947
  C   4.94080427247809     -1.25530821271837      0.05238099971769
  N   5.65206475974885     -0.14022785486061      0.27064599137734
  C   4.98893729671171      1.03436818603326      0.18444308220904
  N   5.45498088566112      2.21389212074937      0.34297399158733
  O   3.59740523800333      1.05464447122171     -0.11715974134533
  H   2.17456625865739     -2.88464894040157     -0.35619775471810
  H   3.22975500444284     -5.14463680721146     -0.22834387310691
  H   6.86836802767890     -2.33869814982354      1.72425484212344
  H   6.37202579778145     -4.04305326210189      1.55601604824272
  H   3.44616101707087     -2.50846792867396      4.19155788010303
  H   6.44475894070866      2.10854306964699      0.54631818837765
