30
Coordinates from ORCA-job 14178optt
  Br  1.73198352629478     -1.56028842063582     -1.87093615184169
  C   2.74507776229362     -0.26055909255306     -0.90652357988939
  C   2.86516256184858      1.03151985071959     -1.27120631178286
  N   2.37966829777753      1.55433351355593     -2.51082106029062
  C   0.97665054833258      1.91509738714345     -2.43411123946854
  N   0.10113039007200      1.35406637116952     -3.14992106028313
  C   0.59349221710697      3.00863651568585     -1.46223891565360
  C   0.11409856651116      2.47101512309772     -0.10286354065710
  C   0.06601691042179      3.57490836057418      0.95340231010993
  C   1.44042754968313      3.97817091353749      1.47629791110715
  O   1.92668830777125      2.99721434475253      2.38107078708901
  C   3.25986768856092      2.55340695826336      2.14737051220460
  C   3.34662908427970      1.54777088431599      1.03459868235482
  C   3.16397907817606      0.23320806018353      1.31132842238204
  O   3.19176253055391     -0.72408614982584      0.29846401251987
  C   3.42635970355991      1.99733570134367     -0.32873945894831
  O   3.75462186800548      3.16963889795055     -0.71433963756491
  H   2.89976110161220      2.43328075859789     -2.58931702168677
  H   0.55867751186687      0.63220338995464     -3.70864579218979
  H   -0.21527263339246      3.58938073463972     -1.91078929158838
  H   1.45830756698757      3.65812757902695     -1.31445979869930
  H   0.76724609448229      1.67228422980607      0.25471795581265
  H   -0.87559485755545      2.02906876385313     -0.23979859277487
  H   -0.42309701850674      4.46202700746775      0.53440685524046
  H   -0.53325382902592      3.25295050632739      1.80955352235239
  H   1.36197399660711      4.92992660935555      2.01748922437706
  H   2.14758602520609      4.11207758018707      0.65342713534855
  H   3.58728991337660      2.10964850828678      3.08926891859524
  H   3.90456080852094      3.40636045383258      1.91331359613179
  H   2.98219872857152     -0.19172534061420      2.28800160769370
