23
Coordinates from ORCA-job 14172optt
  Br  1.94215336227905     -2.07631946148970      0.45584897873452
  C   2.55448950071030     -0.34149519587494     -0.02729741215505
  C   1.73186671440442      0.80766934246594      0.26113723526277
  N   0.59979631476273      0.49397857097968      0.92693385485808
  C   -0.32742932451423      1.38009897013591      1.24188426852463
  N   -0.17941054948999      2.60369935293175      0.85322497933513
  C   -0.78256690844612      3.75374285089912      0.77695062655758
  C   -0.06096218626727      4.67528352494519      0.02003489443391
  C   -0.52283944634218      6.10784243153076     -0.14959298880933
  C   -1.97607123049101      6.28242882142148     -0.12483302493668
  N   -3.10969907836820      6.45451533205942     -0.09920078199946
  C   1.16764955945844      4.34833041806550     -0.58283334617577
  N   1.93613068191890      3.27527511203941     -0.56751121483814
  C   2.25721103717229      2.07917075460216     -0.25958805967415
  O   3.68490555098105      1.95536301682226     -0.61136115371862
  C   4.24723689409947      0.79642627631983     -0.90475040579788
  N   3.74048131417634     -0.35518133564499     -0.65708553437147
  H   -1.18552952412040      1.00075348279809      1.80869953061652
  H   -0.16275117661567      6.50730987483609     -1.10037529493330
  H   -0.11638219095281      6.75420796445498      0.63498901776646
  H   5.22129680346162      0.89344040927241     -1.36978488995524
  H   -1.76234638541500      3.99566527345499      1.20854901061894
  H   1.60077026759826      5.16879421297456     -1.16303828934344
