27
Coordinates from ORCA-job 14181optt
  Br  3.54938911833778      1.63213218071890      1.55176038952630
  C   4.64697278794350      0.25295462857925      0.86269851550257
  C   5.88255719950907     -0.06777759797090      1.29402687471764
  N   6.63758132443562     -0.99145202297748      0.62922321211604
  C   6.18655437802580     -1.35404444334495     -0.57615909356163
  N   7.05923161743945     -2.11011368245677     -1.38939345783121
  C   8.44462992351462     -2.20879218683474     -0.95965380267687
  C   9.30144329553873     -0.91858798901372     -0.95223570333273
  C   9.53456739728303     -0.26400066774459      0.41646766945795
  C   8.42078238210251      0.69658730966225      0.79114024700060
  O   7.98048629287692      1.49679172299162     -0.00017161824660
  N   8.00536149276514      0.70038142009414      2.12933329356371
  C   6.62300218050601      0.58509093489451      2.41271401278774
  N   6.20377180314374      0.90219872860568      3.56499246035966
  C   4.88892945129901     -1.07262566490997     -1.06905309603338
  N   4.32049043449999     -1.38701801522417     -2.18510848362904
  O   4.04694229440474     -0.38576790190400     -0.17571491879580
  H   6.98817631435080     -1.82824979725888     -2.35980280303043
  H   8.91390549888960     -2.92807165133916     -1.63511835595845
  H   8.44864017561217     -2.65059348209400      0.03755281188461
  H   8.84899870069112     -0.17356370148009     -1.61129853967727
  H   10.27910175890249     -1.16647651562920     -1.37485218908134
  H   10.45908083887687      0.32204029083830      0.38098927779808
  H   9.65343009659016     -1.03058375067019      1.18494772693461
  H   8.57683098912681      0.17966592359734      2.77675626345192
  H   5.21826303677200      0.65996968847928      3.64079817201032
  H   4.94487921656217     -1.98109375760846     -2.72183886525700
