27
Coordinates from ORCA-job 14183optt
  Br  1.63638607837534     -0.10813795380121      2.61387961524215
  C   2.44663008549197      0.35256664238862      0.90691767918703
  C   3.24728336372460      1.48866771649070      0.87305435802443
  N   3.14151327931145      2.52745687942288      1.82169216804568
  C   2.13649292520425      3.46666786238159      1.73419624505794
  N   1.64356619617996      4.10888482626030      2.72534395851349
  C   1.65786535621880      3.82919866285999      0.33746753860831
  C   0.24521013978101      3.35364488986549     -0.03366115937770
  C   0.10189571564748      1.91238869766759     -0.54481293801546
  C   0.71939216057444      1.71901595616584     -1.91963907258739
  O   0.30033008822229      2.36369600619288     -2.86614761500084
  N   1.71263725638404      0.78701868304477     -2.14457861603885
  C   2.59544977964264      0.10957703385265     -1.26807570934871
  O   3.87347567236243      0.67248465193039     -1.25785148121592
  C   4.09695853751995      1.63549290253397     -0.27795451195433
  N   4.99135637381655      2.52764044406039     -0.44780210452149
  N   2.10593528262050     -0.40103166134361     -0.09336091100122
  H   3.50161756493013      2.36389363468410      2.75096687418431
  H   2.02356749126694      3.75842516028476      3.60485888855274
  H   2.38646953321885      3.51525434693813     -0.40997982047194
  H   1.64273224430603      4.91962972206415      0.33436605882235
  H   -0.39647685713168      3.47843410440293      0.84100096842816
  H   -0.14034494785909      4.01206625908803     -0.81428913441073
  H   -0.96358490034975      1.72843114161568     -0.70613852018945
  H   0.44441406374264      1.18247580521090      0.17541772201445
  H   2.04326925787239      0.85651467030439     -3.09854405834494
  H   5.39495825892577      2.41464291543363     -1.37532642220207
