22
Coordinates from ORCA-job 14182optt
  Br  2.75060382698885     -1.04262726769449      1.33111711349151
  C   2.95633708250347      0.42340553447149      0.14854260080039
  C   2.10884706813822      1.46387081189830      0.17538140063427
  N   1.12218292029396      1.55137644482021      1.18107181213052
  C   -0.08625887964892      1.53122641331080      0.82137801199462
  N   -1.12099556947004      2.17956803296755      1.56963569812225
  C   -1.09030437246004      3.42035184674172      0.75832137373799
  C   0.09673924020719      4.02164533537393      0.65467713172897
  C   0.75024425303227      4.44082107461002     -0.58666087763027
  C   0.26220497922782      5.52102482088653     -1.39989153000720
  O   -0.72410177816486      6.20074576384401     -1.13134720344899
  N   1.76565184747112      3.71982322606729     -1.05505775280503
  C   2.41131104364060      2.57525451210114     -0.79580735408657
  N   3.49404932597117      2.40650853257546     -1.57691555349624
  C   4.30182406964667      1.35258670237232     -1.56483018565686
  O   5.28140010494898      1.14391169333723     -2.23145994861028
  O   4.00030032187634      0.28029507357607     -0.64552202669572
  H   -0.41125353252293      1.22532862257192     -0.17589517415218
  H   -0.74459816619946      2.37151841306498      2.49549848726120
  H   -1.88401310958530      3.52303237068095      0.03084113119432
  H   0.81965785722948      3.74800568047738      1.41590889905392
  H   0.85117146687538      5.69132636194516     -2.31698605356058
