21
Coordinates from ORCA-job 14191optt
  Br  3.92487090251289      1.68938689214045      3.83957473941945
  C   4.09908750779019      0.69478907023393      2.25409567765778
  C   3.57254637185292      1.08188491913746      1.08735544550425
  N   2.84151803510591      2.24505236064937      0.83821840264261
  C   1.68084993633923      1.96422439949170      0.29478204608060
  N   1.05753103508614      0.80917711723049      0.27576196162312
  C   0.53332892023915      0.12563922548735     -0.76156469297326
  C   1.26339967183945     -0.34355498712081     -1.87282794800768
  C   2.61108180752004     -0.24206725476551     -2.11681071235237
  N   3.45394978086819      0.52746585600255     -1.25091317491527
  C   3.78604104421648      0.10905841056168      0.00162730747751
  N   4.25569181505741     -1.09077746829856      0.19161650483771
  C   4.70628035888605     -1.45244945103974      1.41919961645669
  O   5.13069849519003     -2.52585046575904      1.73917099511446
  O   4.75127187354406     -0.45960919945267      2.42567867796979
  C   1.01331403362792      3.10699979267167     -0.36138750400356
  N   0.45951807311764      3.96172521205258     -0.89102661357113
  H   -0.46003406050660     -0.29265376831419     -0.62033848652929
  H   0.69715918795187     -0.94437709179975     -2.57720834181159
  H   3.07844712477401     -0.72823627379776     -2.95988302626988
  H   3.24244808498694      1.51617270468881     -1.26012087434995
