23
Coordinates from ORCA-job 14190optt
  Br  4.58814902166532      1.61110473763359      3.16234940207320
  C   4.39192319226760      0.38760492640757      1.73869923629064
  C   3.39738874803315      0.45416624035993      0.81787248576676
  N   2.42438171945103      1.44222469550213      0.80647482849813
  C   1.23267601225956      1.81450089010839      0.13037239381306
  N   0.39134725386397      1.45047452570359     -0.78153552138647
  C   0.02923848794827      0.59042086914784     -1.73726163370861
  C   0.58975069712918     -0.56305311709809     -2.31512189494785
  C   1.79685091452040     -1.10769469168843     -1.90821860577529
  N   2.35362814318655     -0.41443667998409     -0.93821053036637
  C   3.40153031921427     -0.60744464584207     -0.18068585192226
  N   4.31029360368101     -1.57629643775001     -0.24066562842383
  C   5.31007311576823     -1.61150419868091      0.67934350332214
  N   6.26274330509162     -2.47534307655790      0.75913142003290
  N   5.32778354157947     -0.60912529806701      1.66793401659421
  C   0.82461014129400      3.08529622280374      0.72462675479289
  N   0.51887517472279      4.09120222187911      1.19503820090280
  H   2.60846911969787      2.12805146853382      1.52583469569847
  H   -0.92582833223820      0.87682999925389     -2.17557449514284
  H   0.01463373500503     -1.02756292861122     -3.10767941256404
  H   2.21606274223968     -2.02273234644712     -2.32988079096459
  H   6.13988413534975     -3.13703453061934     -0.00103761117267
  H   6.07353520826935     -0.66664884598743      2.34019503858961
