17
Coordinates from ORCA-job 1419opt
  C   0.69392040702646     -0.14112013309416     -0.12227334453894
  C   2.20820418598715     -0.11080398021538     -0.00508002778147
  C   2.89291773341605     -0.64098221776647     -1.26343662677928
  N   2.81291060636074     -2.11328314492810     -1.31032728400466
  O   2.59901059163661      1.20330286638742      0.25380930251062
  N   3.97212498103730      1.19106141186220      0.71533071733277
  C   4.65654320901755      2.10608634579143     -0.02290675797639
  H   0.22957866304961      0.14217844049272      0.82362620365374
  H   0.35980369797250     -1.14036156951354     -0.40723474218077
  H   0.37500363917236      0.57067372081500     -0.88744162231695
  H   2.52456047622356     -0.74693201674798      0.83817719218781
  H   3.91514835397402     -0.25326800425230     -1.26008020527525
  H   2.37894331636926     -0.24332139833472     -2.14368681981968
  H   3.33955886215028     -2.48206244694345     -0.52432724460445
  H   3.28232358284885     -2.45386145151983     -2.14170083267352
  H   5.63949218634632      2.34347953328095      0.37688884333260
  H   4.11795550741134      2.91521404468620     -0.51733675106617
