26
Coordinates from ORCA-job 14202optt
  Br  2.25480758019720     -0.63341141853108     -1.74564022405213
  C   2.57279448937791     -1.82738179478160     -3.20096056750266
  C   1.60647453014481     -2.71941802051335     -3.58163578150438
  N   0.40475839632900     -2.88383934331763     -2.89292966991708
  C   -0.62977212902781     -3.79146501657811     -2.85485544040180
  N   -1.03700362510820     -4.67846759607572     -3.68324312582144
  C   -0.50869254693757     -4.68227613720936     -4.95785670932024
  C   0.10164838993428     -5.70026945056818     -5.57010185593745
  C   0.90777663344972     -5.35398709782115     -6.74987372188805
  N   0.52228647882950     -4.70066500638858     -7.76962590240282
  C   2.36874260486393     -5.72047055215063     -6.63643520330709
  N   2.68018148302610     -6.85142385933894     -7.18433249443643
  C   3.27980559231659     -4.82030567234370     -5.99207122297611
  C   3.08940255800872     -3.73564951892902     -5.15344393735814
  O   1.78519012643568     -3.47356777889749     -4.70199171101634
  C   4.09175916000110     -2.85470887828421     -4.73437543339906
  C   3.83480084374865     -1.84062726865963     -3.81111009629702
  H   0.38507667498576     -2.26710443959022     -2.09471460276748
  H   -1.17744092135287     -3.69064760361099     -1.91979804096068
  H   -0.50952871672662     -3.71666616216773     -5.46440544808709
  H   0.27788537304141     -6.64093131401256     -5.06285813469739
  H   -0.48800146795238     -4.55442312227526     -7.70739154242328
  H   3.67660171661234     -7.02862331850971     -7.04756897911730
  H   4.32548166650604     -5.01389891392370     -6.20994280804798
  H   5.07801520557322     -2.98314162313478     -5.15671454750735
  H   4.58394990372340     -1.11562909238648     -3.53212279885299
