25
Coordinates from ORCA-job 14208optt
  Br  1.90102930675759     -1.54433114906458     -1.39958602361824
  C   3.05361544001114     -0.17781064789702     -0.71546059991353
  C   3.08778697172036      1.05586980188435     -1.23225842287125
  N   2.20879295963141      1.70019715221066     -2.16973806740332
  C   1.23456292181630      2.13666003475713     -1.47334723201712
  N   0.47855308945935      3.25820701952681     -1.73418837926643
  C   0.17309523560624      4.02801762629731     -0.51397409187438
  C   1.36226106052894      4.27699504298649      0.44964637594322
  C   1.67921758382967      3.18196838547487      1.48849965888885
  N   0.80104094884869      2.46802376326465      2.05338318385109
  N   3.05158111851430      2.95802289396467      1.82203847274100
  C   3.56992084762048      1.84005680332826      1.04356080939600
  C   3.51269807993644      0.51759240965496      1.54430486052002
  O   3.40455931310056      0.05352773592781      2.64717569560795
  O   3.64180947685617     -0.47336887574361      0.45097167640779
  C   3.71711750176554      2.00214940896137     -0.34252935023241
  Br  4.66617944813249      3.51632407108779     -1.08575709202487
  H   0.99848861962260      1.70257286955116     -0.49766250106268
  H   0.90190456040707      3.81637760159053     -2.46536947460852
  H   -0.64520799035518      3.52697586499816      0.00740441494617
  H   -0.22122084608285      4.98807880870800     -0.84563023479783
  H   2.25438766762609      4.47806695963158     -0.14522927004927
  H   1.14959213862803      5.18798818703667      1.01935568390151
  H   -0.12758646012864      2.67498822350855      1.69164109180119
  H   3.60282100614716      3.77985000835339      1.59574881573505
