23
Coordinates from ORCA-job 14213optt
  Br  0.98389428538647     -0.40260896078555      0.05647709473598
  C   2.86891904560807     -0.23685786537313     -0.07014426673907
  C   3.65524931843884     -1.32010555340672     -0.00851539126337
  N   3.29657277909167     -2.64042452654832      0.12031444641207
  C   4.43214203270812     -3.48232736642058      0.04266413939218
  N   4.41801471699694     -4.77752491947354      0.04241391419498
  C   5.55859480998660     -2.61320766173968     -0.03149373880385
  C   6.94815475506951     -3.11306281373974     -0.06357448030453
  C   7.72865024697653     -3.06920865539351      1.22844884610566
  O   7.34871582656050     -2.64920578807281      2.28449451986067
  C   5.11990769619379     -1.28247773608195     -0.04768722641335
  C   5.79688982405760     -0.06849093928713      0.00136886820002
  C   5.19012276792489      1.18358646296012     -0.02364368206789
  S   3.45101404964847      1.40003045638871     -0.32459192886066
  C   5.89597059649465      2.38456926117097      0.10855992543674
  C   6.48725290840532      3.43899399772224      0.19479648718240
  H   2.35472057953337     -2.96676897498932     -0.01188975983118
  H   3.46634568720723     -5.12783802407375      0.11555922555174
  H   7.57029596372909     -2.57721445094549     -0.79739702185336
  H   6.95145618350021     -4.16452957429879     -0.37854563504713
  H   8.76182749923338     -3.47710729307563      1.13748644576223
  H   6.87434603632073     -0.07806792552757      0.12909751902743
  H   7.01294239092787      4.35684885099123      0.28680169932231
