22
Coordinates from ORCA-job 14210optt
  Br  3.60393526962076     -0.76605297245869     -2.36039097486796
  C   2.85363645497559      0.02697115702919     -0.82660116362159
  C   1.76901545449300      0.84299562775061     -0.95344597460121
  N   1.11475305658398      1.20167635377983     -2.08795083571234
  C   0.67201379908880      2.57788652428086     -2.25824376844244
  N   1.35905139275665      3.46769891596083     -1.49381512459446
  C   0.76857120276203      3.83317463234149     -0.36940639795853
  C   1.43293484173298      4.05970875005938      0.82592880326525
  C   0.74171684178543      3.42548065404109      1.92754280539687
  N   -0.28774965233451      3.71211239921573      2.59816086646411
  O   1.28925512699436      2.13596582293202      2.27613553100262
  C   1.87011551284000      1.39835201435258      1.33792304750812
  O   1.20312360984847      1.35399592548109      0.16592219104037
  C   2.97801643557131      0.65445299057886      1.52317901450461
  Br  3.88568747942496      0.69966411046745      3.16339298849061
  C   3.52958486721727     -0.17674029102519      0.44183800784108
  O   4.50386987639279     -0.89467979743064      0.58816107366619
  H   1.43462807108418      0.70537237915717     -2.90716437799462
  H   -0.39926103983309      2.67241655020251     -2.45473426513500
  H   -0.32270925514406      3.71541575474361     -0.29344048088646
  H   2.50605178390015      3.89610538708731      0.79057508733614
  H   -0.53424112976109      4.67302711145289      2.37643394729862
