24
Coordinates from ORCA-job 14216optt
  Br  1.69346949461505      1.35783189671099     -1.92350109319098
  C   2.99595693589995      0.58613604421227     -0.77890164558015
  C   3.12195883291228     -0.81009283981606     -0.76315874389077
  N   2.16744981050721     -1.76706181352018     -1.15072984387848
  C   1.25660186568127     -2.23769757093036     -0.18731562305765
  N   0.59106810081060     -1.50986934007068      0.60575261563355
  C   1.24638373666898     -3.73418141573854     -0.03214844924669
  C   2.44544131075972     -4.13450640472272      0.85239242213774
  C   3.78581300252767     -3.78233739545115      0.21839682855620
  O   4.31718104784236     -4.55449881294271     -0.54149271473772
  C   4.43535859847284     -2.48675813388734      0.61145817933152
  N   5.40182961656980     -2.40223442200137      1.49122983808133
  N   5.67313641714362     -1.08442601269694      1.70255147335531
  C   4.85915426723633     -0.37482823432110      0.93630669734491
  N   4.78284170120500      0.96574389240341      0.80791104015414
  C   3.82695431678135      1.40498218584425     -0.03579918189964
  N   4.04022544129626     -1.24324453290679      0.22910884718796
  H   2.52529886033406     -2.49120570561014     -1.76006518620732
  H   0.77821862662772     -0.52138191604062      0.42669902776744
  H   0.32031484047553     -4.04157989239413      0.44908376477033
  H   1.33086783239778     -4.23366407062388     -1.00129368235549
  H   2.34792950882372     -3.63919124370430      1.81877048636456
  H   2.44677751238610     -5.21591782530456      0.99291734182635
  H   3.72776832202471      2.47898356351274     -0.14217239846647
