24
Coordinates from ORCA-job 14219optt
  Br  0.80875656126568     -2.31637275312081     -1.79996884370751
  C   -0.43170762649123     -1.26039162170862     -0.73098407195505
  C   0.17207947056771     -0.03208816111080     -0.10995923257997
  N   0.17727178340484     -0.12220565260053      1.27716497574563
  C   -0.15742697451210      0.91872464828310      2.16939807775479
  N   -0.16333781631019      2.15299924064964      1.90803620922623
  C   -0.46266845744288      0.40151458917991      3.54422728584911
  C   -1.65506726247505      0.23296462647386      4.11310685175438
  C   -3.02518218858331      0.59126395058588      3.58392898276316
  O   -3.71459433451682      1.30374461805957      4.32464683775739
  C   -3.43066984769872      0.15474742623048      2.28949658470622
  C   -2.69859091968880     -0.74123867994498      1.52385347499766
  C   -2.69425624208899     -0.84536330920837      0.13775679392785
  C   -1.70510035930551     -1.50159407245073     -0.58912302099848
  N   -2.02400045035272      0.10084422662375     -3.34672936727620
  N   -1.30132752434319     -0.28048201501881     -4.06291823766088
  O   0.50246218558881      0.96538852629987     -0.70886619031882
  H   -0.07791720053697     -1.03739692020766      1.61003484551528
  H   0.11179662887300      2.30772856582167      0.93763991154478
  H   0.42515421925981      0.16039093515443      4.12412387703358
  H   -1.67254838809144     -0.08651587937392      5.15130811914746
  H   -4.28997555938700      0.66630988073604      1.86910707572703
  H   -1.96596726642431     -1.33891886324381      2.05419825156174
  H   -3.42818243071056     -0.27505330610917     -0.42747919051544
