28
Coordinates from ORCA-job 14222optt
  Br  4.34895279980878     -1.60457617096925      0.99880423805476
  C   2.67212094360338     -0.15190520144431      0.51197793208897
  C   2.98272631159998      1.34595162378031      0.66293204558565
  N   2.47005289061916      2.09010662976487      1.80880863843995
  C   1.17177086839128      2.44447995429075      1.52230665487247
  N   0.72422759387215      3.63187022465931      1.53026509801022
  C   -0.41056789250648      3.80140295014675      0.65058974152363
  C   0.13471488250084      4.29210571057943     -0.72621649409159
  C   1.47045224677980      3.63874829787044     -1.12042348005087
  O   1.32331647822254      2.23159796716488     -1.22514922151601
  C   2.40117047360623      1.43669328163675     -0.81524289315369
  N   3.73982116830979      1.92606142000908     -1.25267315645218
  C   4.26981294538337      1.83489386545062      0.05521238754923
  N   5.37121798753265      2.17354922498287      0.56926739124684
  C   2.18954953958283     -0.02875504567740     -0.76129501611349
  C   -0.90542120609702      4.04016533148993     -1.78021985820151
  O   -1.53118801913288      4.90100252587519     -2.34434185621919
  H   3.04797194494503      2.89794198263227      2.01748657097796
  H   0.59527125913444      1.60145434240872      1.12969378733521
  H   -1.10789839338180      4.54917928675664      1.03102944015715
  H   -0.96521582590496      2.86401952848070      0.50044351056927
  H   0.30613065439344      5.36954298436089     -0.67919144842623
  H   2.21832382697215      3.89857809637513     -0.37083191262492
  H   1.80934061642708      4.04233228524705     -2.07936927772169
  H   4.21910739463637      1.45537277492710     -2.01297341908380
  H   6.00922426623037      2.52183169555246     -0.14570554474185
  H   1.92395408516235     -0.74356992902368     -1.52587103130849
  H   -1.08393984069101      2.97292436267233     -2.01331282670578
