29
Coordinates from ORCA-job 14229optt
  Br  1.34582317350781     -2.28977548104295     -2.08108777122261
  C   2.95769224230755     -1.96040429476498     -1.05302400295213
  C   2.86098309902384     -1.98453398501560      0.32847513942204
  N   4.04153150567670     -1.51569213487492      0.96371024547708
  C   5.29702312381723     -1.58844355906075      0.37023242602151
  N   6.41578795049870     -1.42889355839277      1.02217142093382
  C   5.24266771791182     -1.86520425057505     -1.03333686377811
  C   6.48419617173269     -2.31378790477890     -1.73706144176787
  C   7.07379618639805     -3.58818441483304     -1.11570149680959
  O   6.11077638040533     -4.63102560512641     -0.97841992639027
  C   5.77423027595500     -4.95090988803031      0.34746488947069
  O   4.56635804376299     -5.65201505278247      0.36832050076131
  C   3.45875601811144     -4.83569322609100      0.04591316321110
  C   2.84361284984352     -4.17383828611272      1.27568266209905
  N   2.89579129238851     -4.66350112980306      2.44701891095102
  N   2.12850398969147     -2.99989918776759      1.02167262697374
  N   4.07300109637266     -1.86257942161942     -1.72270359769621
  H   4.01815497785247     -1.40398660094848      1.96518476327917
  H   6.23050498490386     -1.27008437266149      2.01073984713685
  H   7.27702965319556     -1.55673386040857     -1.69726825812508
  H   6.22730009079140     -2.49636721561951     -2.78159945373865
  H   7.49520161729669     -3.33535469432704     -0.14075384132079
  H   7.87584372931943     -3.97151085058749     -1.75375143598579
  H   6.51886890806248     -5.62948924213799      0.77794482204533
  H   5.71013661001931     -4.03693901243288      0.95121747547788
  H   3.73910857815469     -4.11127189003630     -0.71403255599799
  H   2.69110817422179     -5.48211233027935     -0.38513471375925
  H   3.41547699666111     -5.54002029946292      2.41382339167659
  H   1.65373456211578     -2.69474825042598      1.86330307460716
