24
Coordinates from ORCA-job 14225optt
  Br  0.98066272588824     -3.11893914495963     -2.83827111653822
  C   1.99199559983440     -3.32991774370636     -4.42192882685188
  C   3.26966450642221     -2.94383096143226     -4.56061009640096
  N   4.08720181155065     -2.64389016609666     -3.45099863564770
  C   4.23459493338153     -3.54210512114498     -2.39395563982985
  N   4.56126692802700     -3.22255067064315     -1.20242359600283
  C   4.00432809208733     -4.95010330540159     -2.79783516568378
  C   3.43371560804296     -5.89866361836314     -2.05955879382605
  C   3.19277747623777     -7.28312986761999     -2.60257485307623
  O   3.48266749674510     -8.27082422932697     -1.91200189836176
  C   2.72894665940745     -7.37790940977760     -3.96140767220458
  N   2.22838357658756     -6.29578176415643     -4.56168174112659
  C   2.51614162688697     -5.93438126222823     -5.79349654859695
  C   2.22164194344856     -4.64980375952319     -6.25293585849675
  O   1.33084321891986     -3.89244990369480     -5.43999222416451
  C   3.35663282131568     -3.83034996990565     -6.66303876839367
  N   3.85440876904625     -2.96729031646969     -5.83995032860335
  H   4.29644886395792     -1.67687206517044     -3.25411730643569
  H   4.60769066334820     -2.20860853097209     -1.10004436827011
  H   4.25774959075984     -5.16726913003301     -3.82743788013770
  H   3.17193323703615     -5.70840153415157     -1.02355923876417
  H   2.89198346441842     -8.32844946472858     -4.47592422464755
  H   3.18884022778428     -6.53399580722255     -6.41978708528254
  H   3.84948015886560     -3.95948225327138     -7.62446813265651
