25
Coordinates from ORCA-job 14232optt
  Br  1.09598381059722     -0.11487859941469      0.74400009549669
  C   2.91820123627304     -0.23585259343511      0.21846845817556
  C   3.50542855875336     -1.47315116836519      0.24767606230939
  N   3.08823208099981     -2.75803785813178      0.54829251475711
  C   4.18972629383967     -3.60618597547367      0.46206439346775
  N   4.11513344731737     -4.85170286827579      0.75623790464780
  C   5.34745418446841     -5.60275151300970      0.63988823230908
  C   5.69283552249023     -5.90531419150895     -0.81306492633937
  C   6.83356975227690     -6.85018061872982     -1.00777408137504
  O   7.43669639688496     -7.41216135891845     -0.13083098090239
  N   5.29621983755970     -2.87359883498149      0.02692559457303
  C   4.87263033432922     -1.64191682129500     -0.08533437861300
  O   5.64338158685440     -0.63283451499722     -0.48168120685218
  C   5.04054547954029      0.63202930688817     -0.53252721989681
  C   3.70652245805084      0.86387046682534     -0.17307885563254
  C   3.19908758493689      2.21524552394317     -0.21784142570601
  O   3.85816679613659      3.19765455267951     -0.54027279004293
  H   2.22987545508789     -3.01614307957042      1.00051951026210
  H   5.23200998363767     -6.54538288100888      1.17684666662923
  H   6.19579322139682     -5.07475663536729      1.08964261590657
  H   5.92448233979430     -4.97777596302302     -1.34844662048059
  H   4.82535521526472     -6.33450195317918     -1.33076346969333
  H   7.11560695570187     -7.03490413205328     -2.06683694215671
  H   5.71955305102778      1.40679078393494     -0.83664500804975
  H   2.13950841677992      2.33044092646787      0.06253585720634
