21
Coordinates from ORCA-job 14233optt
  Br  2.80940514691457      0.27984790571154     -2.36751599697183
  C   3.86006971648037      0.10283351778990     -0.82465097425428
  C   4.37508191834679      1.17379415284849     -0.17979703816392
  N   5.16051076152377      0.94000971828254      0.91965344892574
  C   5.96226555873347      1.92963423709099      1.53019489404644
  N   6.58844153780113      2.90303392549520      0.89635635745290
  C   6.19874159329140      3.47000182170736     -0.23905757438539
  C   7.20090226223354      4.38036009561958     -0.89790658443907
  C   6.62479383749650      5.74319807286069     -1.20706565440569
  O   7.08259506774089      6.48993517053311     -2.03102519330173
  N   4.99743968753570      3.48475132081543     -0.81104992995933
  C   4.01193428356576      2.63421018277111     -0.48596372829278
  O   2.82189020521766      2.88741670259267     -0.48219820821349
  N   5.25948052538718     -0.27465758285471      1.48488659477539
  N   4.72936197706399     -1.28457560944852      0.94615726714654
  C   4.08956462241046     -1.23488825369181     -0.31282716539204
  O   3.74602686842765     -2.26707704874651     -0.85082449182887
  H   6.30702668299138      1.60573393027536      2.50046531496488
  H   7.56052917312205      3.95275833063592     -1.83705304810034
  H   8.06339718885185      4.51746307419291     -0.24174016218196
  H   5.74954138486371      6.03521633551869     -0.60003812742116
