27
Coordinates from ORCA-job 14230optt
  Br  0.64420960969210     -0.02320621924151      1.90466041128450
  C   1.73140172891440      0.61339704165954      0.47857357600128
  C   2.84864420404851      1.49366970111766      0.77588665095735
  N   2.77197691673827      2.45169084692527      1.84673031261907
  C   2.21750905424295      3.71958029641351      1.94724857165335
  N   2.33486256752630      4.45078261832358      2.99599021967235
  C   1.39069141761128      4.32452934298199      0.80849042973171
  C   0.69640697873051      3.24317916440288      0.00286321327232
  C   -0.46228510209105      3.42003946311213     -0.95976963303128
  O   -0.47271035206261      2.18296881250256     -1.70918330500012
  C   -0.87624792304655      1.06006384650682     -1.07576022673181
  O   -1.95973013012742      0.92216113583858     -0.59209958651518
  O   0.02938039815337      0.05912550050037     -1.11849931354883
  C   1.36217917968754      0.44692932519107     -0.84098072331500
  N   2.11736935391098      0.71680935509860     -1.88067344372420
  C   3.34410290139855      1.26305372788827     -1.58363988652687
  C   3.69352425403250      1.71863351158561     -0.33831068328231
  H   3.11038909290021      2.12662967579360      2.74149314082582
  H   2.91875245309477      3.98917211363521      3.69433654910578
  H   2.05936983097664      4.91210364571899      0.17320209643152
  H   0.71223330347584      5.02260071948601      1.29765095804355
  H   0.35571168720441      2.48838687151634      0.71061568021156
  H   1.45984518029801      2.79652661027318     -0.62153657889530
  H   -0.30454411193386      4.19428456536717     -1.70948939679265
  H   -1.43091373464464      3.56539463352777     -0.47678492568234
  H   4.01525780221787      1.39104435405027     -2.42530215814295
  H   4.60561343905113      2.29444933982445     -0.21071194862133
