21
Coordinates from ORCA-job 14244optt
  Br  0.55259262426611     -1.63166595677372     -0.74212053228188
  C   2.23934458943022     -0.81948968629481     -0.48194651851004
  C   2.37321173080557      0.55773331964659     -0.41951746944055
  N   1.20471756071132      1.28398784993682     -0.57969151089169
  C   0.95047550996117      2.47216588844582     -0.17409183818014
  N   1.70486627318927      3.37458129938340      0.54740127083415
  C   2.98187775826417      3.39926064270521      0.43956536878307
  C   3.81535752307799      2.60266116569007     -0.48473766838646
  N   4.67983797471572      3.11052699024971     -1.27577316719841
  C   3.68101593867396      1.15652857105600     -0.29907306243040
  C   4.81139123040852      0.39030146760744     -0.04014666604857
  C   6.11173015150140      0.83332012770048      0.42423537141978
  O   6.57482032669043      1.91554698866390      0.69532503760501
  O   6.86104728738898     -0.32289384091278      0.65438143285499
  C   6.06817114952332     -1.42042778033995      0.41201582848225
  C   4.84196367318972     -1.04546871877013      0.01696223847774
  S   3.49456867721451     -2.03138613601045     -0.48055191509079
  H   -0.06401610616832      2.82343699543295     -0.35140708491048
  H   3.53042084772762      4.10365184628727      1.06712920390053
  H   4.68812553991711      4.12785806046817     -1.17667310944015
  H   6.52747973951116     -2.38622909417198      0.53071479045204
