21
Coordinates from ORCA-job 14247opt
  Br  1.05488313385193     -0.29902619092458     -0.12587417925883
  C   2.93162199761907     -0.22959120014107     -0.02414700239372
  C   3.68508065618764     -1.37572694474061      0.00933006786004
  N   3.08550661401108     -2.58846659471193     -0.01342676997124
  C   3.82440724276799     -3.69374150246730      0.04458447812213
  N   5.21007148631525     -3.64398827019224      0.11345837273307
  C   5.84690216872929     -2.46235056614231      0.09282525264342
  C   7.28334208693660     -2.50601505224389      0.13086594285932
  N   8.42955757631915     -2.55214506580153      0.16434136873581
  C   5.15774074301261     -1.27601259480814      0.03947781466864
  C   5.84714661674020     -0.02264606409146     -0.03390230732724
  C   5.24705261719219      1.17187701102503     -0.02866930098666
  S   3.53034039721745      1.38360295191053      0.19137157680695
  O   3.31566151836180      1.83934644222326      1.54622193648746
  O   3.03794060874928      2.25258032864925     -0.85051209266107
  C   3.30226527918046     -5.01379676597285      0.05318543145242
  O   4.04022708847585     -6.02023939761104      0.11489409062598
  H   5.67453801241316     -4.54366587032036      0.16423069233173
  H   6.92912354627365     -0.05450206856909     -0.11388906345129
  H   5.77903748951611      2.11054880517377     -0.10534095540668
  H   2.20855312012888     -5.08704139024334      0.00297464612975
