29
Coordinates from ORCA-job 14248optt
  Br  5.57402027188595      1.31052524042822     -0.49327100024420
  C   4.06572186018472      0.15966445387141     -0.45159753383669
  C   2.77877658123516      0.70744909597808     -0.63133884944522
  N   2.54518495830993      2.03373316649785     -1.14247050793425
  C   2.47270770965988      2.98462889646326     -0.11079828773920
  N   1.42882622937262      3.50839868231021      0.38209418798529
  C   0.13250437559606      2.98508623730487     -0.03758083411133
  C   -0.12480445663050      1.52615519441222      0.39120521565730
  N   0.34890190291246      0.49824787611058     -0.54107963518059
  C   1.64766804952907     -0.06045417763938     -0.34167339830977
  C   1.79528798047802     -1.38231347572509      0.01831032156337
  N   3.08789809225964     -1.94151193385192      0.08826700201351
  C   3.16426025060342     -3.37428043259001      0.11366473222536
  C   3.12044889478307     -3.96129236083378      1.46494714045958
  C   3.07910987666328     -4.43517153906796      2.56579021687894
  C   4.27598836253032     -1.17763719404830     -0.00340680885279
  N   5.44917560520013     -1.67093517919012      0.26285528435949
  H   1.66047667229970      1.99791246814671     -1.63964800391849
  H   3.44197435718257      3.26921622064259      0.29308007024516
  H   -0.03345661378827      3.06269613290547     -1.11886137007021
  H   -0.62561162661768      3.60957661627758      0.44009736883673
  H   -1.20876042753385      1.40493243648049      0.46854998809448
  H   0.30090949988173      1.38173134055875      1.39125627505530
  H   -0.32341189833752     -0.25211477649262     -0.61313999997135
  H   0.98845993283285     -1.98170169827246      0.41821955375339
  H   4.08231598944443     -3.69695946239991     -0.38353855221353
  H   2.32181412504022     -3.77316550393648     -0.46318550007807
  H   3.05114528852816     -4.83418582184424      3.55031139988014
  H   5.37746815649438     -2.59823050249602      0.66694152489764
