28
Coordinates from ORCA-job 14259optt
  Br  2.29020872696555     -1.74318270306243     -1.59815738990588
  C   2.62351480002672     -0.23235706276910     -0.48381320047398
  C   2.19197896171252      1.00684783064114     -0.84602661097224
  N   1.42932474944690      1.28553120055043     -1.99836279436823
  C   0.30687643409629      2.08304928932477     -1.84605700519749
  N   -0.22100275193121      2.23795311687815     -0.71224839895607
  C   -1.00744239100545      3.39716069709220     -0.42787740578282
  C   -0.09547463945253      4.44060358393973      0.24773640190580
  N   0.55594158901621      3.95403222101962      1.44804810394011
  C   1.98361917501556      4.20420795428067      1.61792935078761
  C   2.75523423007073      2.99784150743860      2.14866940661105
  C   2.80308214628143      1.82418859776325      1.18736762745066
  N   2.44554588519462      2.09346389845204     -0.07070362861253
  N   3.18435273642848      0.66831685191142      1.68194220551459
  C   3.24810211878145     -0.38760810950898      0.78844380327175
  C   3.82701770577645     -1.59681635911049      1.20769848065027
  N   4.29032961289919     -2.60136145017756      1.56131195718450
  H   1.47655137133295      0.63448760857540     -2.76546645090687
  H   -0.01112412210232      2.61909318415723     -2.75334282945976
  H   -1.81986024886212      3.12655029938821      0.25222100758056
  H   -1.44713570793481      3.86412651211234     -1.32802704568004
  H   0.68150077844413      4.68733568952455     -0.47919550196426
  H   -0.68332880685606      5.35493313344848      0.42196778091487
  H   0.03121670036462      4.16392260731679      2.28289447106421
  H   2.16879594065089      5.06099069043442      2.28197476187424
  H   2.39478107207182      4.45610768531292      0.64131033917524
  H   2.32207730317185      2.64024659514274      3.08551203244241
  H   3.78031663039610      3.30633492992337      2.38125053191226
