30
Coordinates from ORCA-job 14252optt
  Br  1.21653707561066     -0.31079591916068     -1.43032880666226
  C   2.92335980522080     -0.12884166091514     -0.60280803281224
  C   3.56312894930710      1.13801919001773     -0.62385122688480
  N   2.96475632156349      2.26151903370629     -1.05921571177913
  C   3.31072975547634      3.46310864323280     -0.60020102598207
  N   3.87679963831662      3.69962744254330      0.69424965183014
  C   5.27765728232231      4.09641317322104      0.77958812955918
  C   6.26660648573020      2.94454351504073      0.54876865428829
  N   5.83938546326509      2.08517047303711     -0.55211155052923
  C   4.94702806767510      1.04570184485861     -0.19550983622596
  N   5.45500106925232      0.02570440644465      0.44862757880702
  C   4.71546821000740     -1.08344196972455      0.65310859679407
  C   5.34725345505199     -2.16489076766859      1.48336792227738
  C   6.87095619903175     -2.17931892975969      1.30313864828674
  C   7.51379359937032     -0.96662373192190      1.93494350493360
  O   7.48695631660131     -0.76431186185206      3.12394330128104
  C   3.46891280390558     -1.21499673843138      0.05157991132027
  H   2.80571809161923      4.31733591995512     -1.03841182783889
  H   3.70426141825448      2.89592994047225      1.29379343043781
  H   5.47000020795984      4.55444586976362      1.75592200774243
  H   5.43413344259528      4.87042079737998      0.02339489174400
  H   6.34378184942429      2.31465822116866      1.43798326439872
  H   7.26536641562926      3.34676267327700      0.35020359626888
  H   5.39247805459672      2.65640585673645     -1.26184856922764
  H   4.92969551836694     -3.13701260726159      1.21002252296748
  H   5.14429018902720     -2.01950925838970      2.55090712855577
  H   7.11953295493291     -2.21446504439545      0.24168661723444
  H   7.29172230273403     -3.05636354395863      1.80319739753295
  H   8.05353025864615     -0.28133363799028      1.26180063502877
  H   2.92515879850506     -2.14986132942573      0.10105919665320
