26
Coordinates from ORCA-job 14256optt
  Br  1.36615420095269     -0.65044525170614     -0.22781627252790
  C   3.27838417290124     -0.43436331851233     -0.05843334350001
  C   3.80686849400013      0.89812132147624     -0.20572838853816
  N   2.96182789580610      1.88984650571756     -0.50161142976721
  C   3.11060062308334      3.13991836895925     -0.81729641972320
  N   4.29131933377760      3.94590120451620     -0.83457918524704
  C   4.09875940051156      5.09459597591349     -1.68950464893660
  C   5.10426855667240      6.14344855312392     -1.46396879832124
  N   5.87880334579584      6.97864337090421     -1.33241225863416
  C   5.52805404295701      3.23975835855435     -1.13338389956086
  C   5.93016981067744      2.28774162987935     -0.01516661048045
  C   5.23378052689468      0.96238435778924     -0.02425743723418
  C   5.93868189343842     -0.21440243416263      0.22226408671798
  C   5.27506363139258     -1.44241662988153      0.31301480582973
  N   3.93400827322861     -1.51627188896043      0.17682687649038
  C   7.35977516265936     -0.21395226010088      0.41394536576634
  C   8.55067740427022     -0.25082696940385      0.57608005331327
  H   2.20613927291095      3.73413407248458     -0.91570509839549
  H   3.12089659370382      5.53330379805025     -1.48620932800178
  H   4.11910439485073      4.83149259383460     -2.76197323199453
  H   6.31210107345666      3.99156682794196     -1.24798599626957
  H   5.43778727406163      2.69356274660547     -2.08814869799377
  H   5.73492134855016      2.81216117843675      0.92904479842548
  H   7.00588691588845      2.12163237357468     -0.06947232391226
  H   5.81384001041538     -2.36093501508040      0.49712590651495
  H   9.60312634714288     -0.28059946995398      0.71735147598031
