24
Coordinates from ORCA-job 14253optt
  Br  0.65296732532179     -1.43587085202997     -1.37342399545588
  C   2.28082288439398     -0.49385690912497     -1.37335161858667
  C   2.27682494835281      0.91365064359119     -1.46660924257654
  N   1.19790468649320      1.65558155775736     -1.60680749615732
  C   1.11164214258253      2.94129022824474     -1.90805426143200
  N   2.08331613128176      3.97896439702770     -1.68093337254753
  C   3.41787140232149      3.85742229068512     -2.23729765931431
  C   3.45066356645810      3.62239753219466     -3.70625330595289
  N   3.51118446006135      3.55592056123519     -4.84993068825612
  C   4.14534603661798      2.77040546731053     -1.46962683668018
  C   5.48387108462387      2.13546271605235     -1.95306341888565
  C   4.75285221311739      0.81629677960165     -1.77410182805502
  C   4.96986018026285     -0.49246200669720     -1.63737518365656
  S   3.66333159566507     -1.42698839640167     -0.92901161120051
  O   3.61087629246318     -2.73498736917624     -1.54526269685255
  O   3.89986219167386     -1.43032438411599      0.50371682367594
  N   3.55877261299641      1.45603389388201     -1.60831572287979
  H   0.11379137404575      3.35276529789862     -2.00120396247444
  H   1.67476162780313      4.86672358323744     -1.93808862054655
  H   3.94173048796944      4.80329561100657     -2.07033639587192
  H   4.18442259659420      3.10086196310219     -0.42572816255936
  H   6.35004783644401      2.30262063240539     -1.31753878567189
  H   5.71213817900994      2.36298098881342     -2.99408085791284
  H   5.91313814344577     -0.99618422650015     -1.77532110014933
