25
Coordinates from ORCA-job 14262optt
  Br  3.24812377073133      1.88861528894523     -1.84528977333252
  C   4.39810612213969      1.12661206615975     -0.53864135649562
  C   5.62453338318937      1.65967143602283     -0.26721764180574
  N   6.43890525818854      0.82363924930758      0.54303516198170
  C   6.54484003610000     -0.49840325911826      0.16222933655846
  N   7.62610773048732     -1.17096308790598      0.05762627195640
  C   8.83602180295203     -0.42800058026214      0.08859698926479
  C   9.05097647736815      0.56901395362921     -0.78135319088573
  N   10.13603171063548      1.45062636631254     -0.76299986732498
  C   9.94626849437029      2.69150693387263     -0.99612297142956
  C   8.63200977641610      3.40356420531441     -1.18005873499854
  N   8.65943093693890      4.48584924075801     -1.90290877045232
  N   7.63096845237582      2.76224972897329     -0.55160656720709
  C   6.32841911791289      2.76708273699074     -0.82126061470982
  C   5.20013519660386     -1.14054594882685     -0.05225128017162
  N   4.96347104758635     -2.38898410499739     -0.00045986789723
  N   4.18628483401608     -0.22369946418692     -0.24523190658257
  H   7.34153902252450      1.29125393074980      0.63230376749909
  H   9.55570630076565     -0.68158126515445      0.85869745899270
  H   8.31120663083754      0.71657539536767     -1.56399206188525
  H   10.82919493760446      3.32370528670533     -1.08538621769171
  H   7.72131667033358      4.88341206679910     -1.95212581419389
  H   5.83522128296633      3.42689457260258     -1.53285092277543
  H   5.84601363214084     -2.86541065533957      0.17926669093186
  H   3.25616737481478     -0.60668409271918     -0.30599811734536
