27
Coordinates from ORCA-job 14264optt
  Br  0.92757990405835      0.24564313198476      1.37933668527928
  C   2.92440004563917      0.04244331229994     -0.09626470961285
  C   3.56412530207632      1.20144850039774     -0.45403011806041
  N   2.85661538879954      2.34875197018633     -0.88002875274613
  C   3.10565306253942      3.45615032855328     -0.33212772266004
  N   3.83680112159637      3.70583125011183      0.85987357900220
  C   3.64406592240996      2.78809553786584      1.97065531269267
  C   3.87035741958380      3.51779116890021      3.22793537726752
  N   4.09856694211427      4.10274709354029      4.18729191070400
  C   5.18145255500879      4.21254246668982      0.66143141168119
  C   6.17866372124008      3.11067727950467      0.30620835963829
  O   5.69353409571222      2.31602737047166     -0.76488305750226
  C   4.98797726031239      1.18377821439140     -0.40312487055069
  C   5.68953468159373      0.07247309412011     -0.02969155736149
  C   5.01819036340364     -1.14359104346593      0.34363740405459
  N   5.51559405707629     -2.27969375539515      0.70762575363012
  N   3.62963645365283     -1.03343558050655      0.28610450988613
  H   2.70320953501190      4.36360295602700     -0.78261060989369
  H   4.30258569314363      1.91094445730685      1.97333049371622
  H   2.62277239191162      2.39598962349989      1.94909481824300
  H   5.51768788551416      4.73466621939379      1.56287100263959
  H   5.13960814652418      4.93695890994154     -0.15506461525023
  H   6.38815415222574      2.47351655015410      1.17098788067352
  H   7.12040151286298      3.55460999845760     -0.02282869166037
  H   6.77102079085151      0.09461363241192     -0.03388696002913
  H   6.52912878017694     -2.22326424708642      0.70780961114679
  H   3.12268281495992     -1.84831843975663      0.60734755507216
