23
Coordinates from ORCA-job 14275optt
  Br  3.16015264165446     -0.42681300634311      2.08604957361583
  C   4.23362118732382     -0.08359743721108      0.58436102350534
  C   5.50607106910723      0.35049584638767      0.59188413316181
  N   6.00254873437618      0.53132077125021     -0.71527826750027
  C   5.82669116362577     -0.66537028036032     -1.48128899140104
  N   6.79537519530153     -1.57499326403766     -1.67859709169120
  C   7.98951672536888     -1.40859533549584     -1.08162997021068
  C   8.74654940433648     -0.28024726243735     -0.86808186806183
  N   9.48654629538215     -0.15510716218971      0.34915446308186
  C   8.88033088641615      0.19123313923083      1.53562434943651
  N   9.30942373008972      0.07520221118626      2.72066245278265
  O   7.68296218363255      0.82505284703969      1.27918574159656
  C   6.45046917945829      0.37678414632748      1.73634617693530
  O   6.23954670630078      0.06320717920381      2.86392985735301
  C   4.45539212894823     -1.06993893134526     -1.52252765284686
  N   3.84886952372628     -1.99511362918216     -2.15126203774002
  O   3.63941209840331     -0.33635480653731     -0.59312910671184
  H   6.96114055870618      0.83175696948985     -0.69410365138872
  H   8.39097802071579     -2.33026912461268     -0.64576606151824
  H   8.61107923917616      0.63003644743129     -1.44165177453677
  H   10.46373036545736     -0.39226594092270      0.41360608232481
  H   10.17979386836481     -0.45161246629684      2.72279765278178
  H   4.53279909412771     -2.42781091057505     -2.77128503296794
