24
Coordinates from ORCA-job 14276optt
  Br  1.42708623948382     -1.58344592625096     -1.23714277498716
  C   2.45476523353604     -0.20323369078127     -0.45210422830420
  C   2.53846036006677      0.98812118588228     -1.05866867574515
  N   1.94669991027990      1.37005474766474     -2.26090581010110
  C   1.18016675333231      2.53857181877759     -2.36891597966521
  N   0.81112108980395      3.03601150825078     -3.48315093147513
  C   0.81194932980536      3.18813947704772     -1.09114968245573
  C   0.38121034606122      2.48490396080435     -0.04196544329928
  N   0.20873737524516      3.01693075923253      1.23134396697175
  C   1.13574157832248      3.82182292896406      1.90795918557439
  N   0.82203731043241      4.65149158819485      2.81406295671004
  S   2.92344571186832      3.60619152623176      1.58731218909579
  C   3.17447041678582      2.04773273929768      0.91908369558316
  O   3.22462258958062      2.00701397143450     -0.49433831477194
  C   3.16872909889105      0.82960554490163      1.59663690473278
  C   2.96008626522427     -0.40935941712855      0.93825016186601
  O   3.04687147722973     -1.54613431811047      1.44163723103528
  H   1.79868351302809      0.64926642006866     -2.94984370718304
  H   1.20259783095151      2.50347072406186     -4.26005914614962
  H   0.97883809641577      4.25441603941357     -1.01649885325911
  H   0.15298058295937      1.42739417475275     -0.13468533374720
  H   -0.40626640018269      2.50820380429169      1.84686926601605
  H   -0.19209111398182      4.75728154172404      2.86095068008280
  H   3.29705640486050      0.82254889127417      2.67132264347580
