26
Coordinates from ORCA-job 14274optt
  Br  2.04326281121463     -1.14738631039187     -0.91654947199162
  C   2.76651149739947      0.43748599939466     -0.10961827657221
  C   3.15034223117522      1.51088818772529     -0.79498168926304
  N   2.77871718649453      1.76378620202987     -2.16001244390976
  C   1.45140207047662      2.23978921738143     -1.95177850332122
  N   1.10638040064939      3.44559608339954     -2.04679445011314
  C   -0.08263461836550      3.79089299993483     -1.27886624264673
  C   0.42479265631022      4.41713623267087      0.05267956066821
  N   -0.19222455894806      3.92993390129489      1.28053215916324
  C   -0.27605657824582      2.64106041446228      1.77646530380553
  N   -1.29516034185898      2.21640068642023      2.44979108082592
  N   0.73435262882267      1.71510135426569      1.58006786828959
  C   2.16192552622961      1.79303234608938      1.62043839223220
  O   2.65658043828814      0.48492996115158      1.23004076543801
  N   2.82482164157083      2.85980293911675      1.17866896022280
  C   3.50022883372986      2.74700163647945      0.02551124453475
  O   4.23264964298041      3.59595710078794     -0.48499006346333
  H   3.34695345313017      2.55006085044622     -2.47523149913661
  H   0.80061500972429      1.47044409335163     -1.52592893500140
  H   -0.69887076020000      2.91200089585126     -1.04496020013156
  H   -0.69599743086060      4.50165247577027     -1.83531811637175
  H   0.24993836442150      5.49356158232259      0.04776298185736
  H   1.49793693845221      4.27448584914425      0.11540856927284
  H   -1.00992316679684      4.44917501424862      1.55283145280798
  H   -2.05640216763380      2.88692221565588      2.41040987038907
  H   0.41385829183978      0.83528807099637      1.96342168241484
