22
Coordinates from ORCA-job 14284optt
  Br  6.05210697049713     -0.98020816420727     -1.00224023345170
  C   4.82439635649529     -2.16157014723669     -0.10741866862075
  C   4.29353936871151     -1.80769995270320      1.07873502923332
  N   4.73317964783709     -0.81325269760943      1.93679859571202
  C   5.96370029225184     -0.92951204128374      2.66120079708695
  N   6.22965528301048     -0.15749288757340      3.63881957281890
  C   6.97346009043754     -1.84373095629221      2.10465909830935
  C   6.67993871788538     -3.02012185613444      1.52873349569451
  N   7.45626451620653     -3.69065447744176      0.62050390432962
  C   6.98103723386639     -4.29035452329264     -0.60794861479413
  O   7.86032798566844     -4.73907180846605     -1.32552321562183
  N   5.65876785207631     -4.37984936011831     -0.87772414099544
  C   4.70145993011750     -3.51554105089496     -0.55473279064591
  S   3.03573805149100     -4.11662645762603     -0.47120057442710
  C   2.62121561957717     -3.59333927967131      1.15896081161953
  O   1.66534935733465     -3.99285951362244      1.75658143743425
  O   3.46044244455145     -2.70428007633818      1.76318589045949
  H   4.00677450814813     -0.36682578867755      2.48138624053271
  H   5.47158772809418      0.50540245622183      3.80388044294827
  H   7.94515223685828     -1.38852165072039      1.95396544588037
  H   5.74058799664512     -3.51669146026926      1.72925717337856
  H   8.39631781223840     -3.34519830604245      0.48112030311896
