20
Coordinates from ORCA-job 14288optt
  Br  1.13549846117179     -0.37572335253562     -0.03356819221222
  C   2.99634656348352     -0.11365880331319      0.08554828207731
  C   3.59839686827449      0.28293158313786      1.22736177122348
  N   2.85031235160100      0.50643984099408      2.38623889466097
  C   3.52225300836167      0.83282228400660      3.43085845156024
  N   4.86307772298928      0.97376448065522      3.49075868119001
  C   5.52919768482524      1.39971521712514      4.68638627710976
  C   5.80301502915413      2.85086468046664      4.72307325725030
  N   5.99956931638554      3.97658203159344      4.80153707127286
  N   5.68794653245228      0.85779594810530      2.40434057628345
  C   5.03867949001462      0.50272459354755      1.26707039443694
  C   5.79421500790708      0.39321198995456      0.09506141861573
  N   5.37941237389721      0.04357034058486     -1.10563830567525
  S   3.89657900429541     -0.52187982080023     -1.36855163043551
  O   3.93663536888623     -1.95986420878612     -1.46532396795023
  O   3.31051494405446      0.17317680467747     -2.48359941473008
  H   3.00236093982240      1.00709149672052      4.37011851773013
  H   6.48117696090069      0.87143874118565      4.75649538800647
  H   4.92109450591752      1.14949292487803      5.55591327261176
  H   6.84571786560531      0.65950322780222      0.17791925697384
