26
Coordinates from ORCA-job 14286optt
  Br  1.58858182330784     -0.92997516049962     -1.43947805773052
  C   2.31878486946693      0.43965485635708     -0.30329422889786
  C   3.22195829260744      1.42638259472147     -0.83467732340434
  N   2.66357083904858      2.50315967268555     -1.53619001939094
  C   1.47296239770261      2.51671823109577     -1.97420261247233
  N   0.78808677771749      3.75853311324204     -2.17504798499565
  C   -0.12448532312770      3.94047323811524     -1.03468599956624
  C   0.54111954675597      3.94553996083328      0.36731102695910
  N   -0.27185046795039      3.22401814977095      1.33781689719904
  C   0.06217547934528      2.47623825942968      2.42122618952582
  O   -0.73646463118049      2.13064486604036      3.25210970511630
  O   1.39554408630908      2.18249147381902      2.60250619251277
  C   2.09437589357214      1.58561911637425      1.57810019943101
  N   3.39088186812460      2.02197553994416      1.47457845144029
  C   4.08354881887894      1.97847833301912      0.22529755763065
  N   5.25351549015444      2.46937511279501      0.08732688115745
  N   1.57319136520306      0.71278254471802      0.80190821717165
  H   0.80419390282453      1.65613520997693     -2.00518478303917
  H   1.49094774463886      4.49260890471745     -2.17444048667674
  H   -0.83204812215703      3.10810985156183     -1.06172927220691
  H   -0.69376852672045      4.86039245027459     -1.18694820245085
  H   0.69559821492478      4.97563728914815      0.70468539345653
  H   1.51747403956897      3.47548907346559      0.29480175920431
  H   -1.26626381299107      3.38502190171361      1.30745063226174
  H   3.73525889662747      2.63557576293725      2.19708519778067
  H   5.57511053734806      2.89491965374316      0.95767466998424
