24
Coordinates from ORCA-job 14290optt
  Br  0.89418987196007     -0.28769655184527     -0.43454803171692
  C   2.76424183993824     -0.04950855009730     -0.22003717126229
  C   3.57148040940772     -1.13105269313322      0.02847085243294
  N   3.07714820828166     -2.42046335595746      0.13570463497728
  C   3.91455149789729     -3.47583316041138      0.37396550287649
  N   5.18334710724152     -3.36015142716244      0.51382397207489
  C   5.77782531815300     -2.12095093744302      0.43063090166897
  C   7.23659188592518     -2.10107593800108      0.60051301155509
  N   8.01013473713922     -1.07842413128769      0.57134329173675
  N   7.77589050894992     -3.37356660384128      0.80807935910613
  C   9.09868925057266     -3.71174271287782      0.98556543504882
  N   10.13281775282099     -2.98020598228486      1.01493922293303
  C   4.97776666032804     -0.95626566587171      0.18744227390480
  N   5.49689379202537      0.28276042121027      0.09975306262217
  C   4.72408627911884      1.31554788299128     -0.13908085726700
  C   3.28910668665748      1.28483330315160     -0.33589026004689
  O   2.61165368089472      2.29567984462683     -0.57543306790635
  H   2.08493983918990     -2.55968928722701      0.02611453857234
  H   3.44085595451445     -4.44798639028405      0.44173322133948
  H   7.44597667349645     -0.24761965743189      0.41042600739928
  H   7.09258320166416     -4.11412434774868      0.81412581380653
  H   9.21110699495179     -4.79107324814930      1.11465445245163
  H   9.85541807136608     -2.00649467965056      0.87972183983610
  H   5.19270377750519      2.29310386872606     -0.20201800614326
