24
Coordinates from ORCA-job 14296optt
  Br  1.09192693229436      0.28321321282243     -1.02638227743757
  C   2.86383916678142      0.09601043192578     -0.36408853248879
  C   3.44777347106440     -1.18569083317849     -0.17121621781311
  N   2.66827085474686     -2.38745557355039     -0.22651611626746
  C   1.70924765160756     -2.54245908551162      0.77310864120697
  N   1.17961988197622     -3.58501403517366      1.25867424887762
  C   3.51197868773636     -3.48362378418424     -0.66156018550379
  C   4.66598530317173     -3.61267769342720      0.34191511694930
  O   5.44210447521709     -2.44870126811094      0.28738547224417
  C   4.79674584917127     -1.26068335569793      0.07919859948915
  C   5.59728407081178     -0.07032760286035      0.12025081703019
  C   7.00818188550161     -0.05042704388066      0.33468314628160
  O   7.78468294127311     -1.00592972385525      0.47130151975044
  N   4.98238223272484      1.15082427169094     -0.03925467089464
  C   3.69624059681416      1.21093458643474     -0.28157061583350
  C   2.83829669757648     -4.76086545468305     -0.90246402569007
  N   2.40360785628578     -5.79692304764114     -1.13094498443605
  H   1.38940151136576     -1.57363211953163      1.15003179217137
  H   1.51881111088316     -4.45516797573373      0.85961180708083
  H   3.94112561466718     -3.18730675283927     -1.62343294552762
  H   5.32529460230510     -4.44627915654023      0.10156842425775
  H   4.23707507682249     -3.76019528333549      1.34004742550540
  H   7.39006123944595      0.98805524835611      0.36954480902723
  H   3.26506228975529      2.19732203850531     -0.43289124797942
