26
Coordinates from ORCA-job 14297optt
  Br  0.49046867054901     -0.49657977436823     -0.97452275290605
  C   2.77959272853886     -0.10208470643169      0.09899206551749
  C   3.61667998335869     -1.18032950124490      0.28547864909039
  N   3.15982945449202     -2.51334412805908      0.59844528512730
  C   3.34695423814729     -3.39975029328713     -0.50074335605673
  N   2.59589497373629     -3.48685311308786     -1.50137407589990
  C   4.68405176965079     -4.10254341566158     -0.43587831659541
  C   5.79035868504710     -3.05365521377350     -0.67238167764414
  O   5.85327001090846     -2.05316721390385      0.32370873509572
  C   4.99589389065773     -0.97755128857572      0.14344276252359
  N   5.56154495440966      0.17827337547216     -0.11566883573100
  C   4.73390037423455      1.22046448816025     -0.27359932053364
  C   3.35555921753747      1.12790385974366     -0.19701590491614
  O   4.79268310766108     -5.10210665822914     -1.43324545365267
  C   5.69360031453839     -6.11627432472177     -1.13189667634149
  C   5.18485202758514     -7.05552787038492     -0.10422957065855
  N   4.81372856132699     -7.79555063686732      0.68773451028182
  H   3.68075506064622     -2.84474556845091      1.40384372492578
  H   1.79393734622060     -2.85406247824103     -1.38759897643867
  H   4.81069422909193     -4.54630812612616      0.56175659095404
  H   5.62952118263640     -2.61231672528999     -1.66015324598153
  H   6.76423299228203     -3.54797571385930     -0.66736824414914
  H   5.21279473186969      2.17270893045272     -0.48415349453232
  H   2.73920023900225      2.00106880776066     -0.37604598346843
  H   6.65954742431221     -5.73923006708705     -0.77784361659162
  H   5.86645383155902     -6.68446264393822     -2.04568282141867
