27
Coordinates from ORCA-job 14304optt
  Br  0.84906719289612     -0.08834963289605      0.13318669153718
  C   2.74010426832018     -0.00312560100780     -0.05221530423944
  C   3.52841198226339     -1.14342750849743      0.07972625082594
  N   3.27088227979963     -2.47910887464675      0.31708062820423
  C   4.45640092305921     -3.22414002482078      0.32655391654362
  N   4.57615639956479     -4.51058442777264      0.49432359672153
  C   5.51403031984250     -2.27259962805567      0.09227623296742
  C   6.93528485738351     -2.64150089484768      0.00466708824575
  O   7.58718687596178     -2.57637621598570      1.28488169445612
  C   8.88430754050077     -3.08014636312356      1.23144335088365
  C   9.47523479093932     -2.97182830301104      2.63360538436719
  C   10.84348953698412     -3.47550546445009      2.69438133432289
  C   11.96580818472498     -3.89716641059107      2.71247377968736
  C   4.91153785854260     -1.03284089037159     -0.05548008951998
  O   5.50288648804350      0.17462010119401     -0.31380599289519
  C   4.60517074805896      1.23952894382565     -0.42857246914548
  N   3.32528770869419      1.17127430352379     -0.30710424944740
  H   2.35283334206066     -2.86444992656021      0.44787239043099
  H   3.66131489508321     -4.93920951326744      0.61277133094322
  H   7.47639303785131     -1.97552180097763     -0.68043071054781
  H   7.01156589499269     -3.67242355078424     -0.36195121193909
  H   9.50562764249539     -2.51258218639088      0.52281246575345
  H   8.88783143436254     -4.12987901601270      0.90711956343480
  H   8.84098662934566     -3.53268997060700      3.32253175195873
  H   9.44925445367639     -1.92657954401181      2.94731393368429
  H   12.96055417013671     -4.27066540011203      2.73174067786313
  H   5.12039054441580      2.16427780025839     -0.63320203509713
