21
Coordinates from ORCA-job 14306optt
  Br  1.12577222442275     -1.68553149219818     -0.44217436163994
  C   2.54610664217324     -0.45243872630946     -0.58340373999333
  C   2.39476470702370      0.85746293572815     -0.23955692611896
  N   1.33601426024037      1.55942931855496      0.11297257306867
  C   0.14711966970019      1.37053037814614      0.65986456292768
  N   -0.61121657783912      2.46752791893325      0.82868208003522
  C   -0.09932076982391      3.54465713538488      0.26932584274051
  C   1.07758465967805      3.50217085960646     -0.67910174122017
  O   0.88889315816087      3.54420981279878     -1.88649854714188
  C   2.44165436113670      3.86544512848690     -0.16027507402533
  C   3.50402481175800      3.05587917996823     -0.01769038801417
  C   4.74322451159392      3.68831835623285      0.36014289717271
  N   5.68036175875786      4.28728024420390      0.64805033101468
  N   3.59549185920086      1.66785539745676     -0.25430055671190
  N   4.77128591128840      1.13110433698884      0.23525259829814
  C   5.06818583928848     -0.06118250228355     -0.05789001232658
  S   4.09200802383759     -1.10094977747645     -1.08553899352348
  H   -0.22046762381028      0.41663790355536      1.01755788626504
  H   -0.63313831284393      4.48551832410591      0.35023283117981
  H   2.61429459210935      4.92085158299429      0.01847532763011
  H   6.00135629394689     -0.45277631487805      0.32887341038319
