23
Coordinates from ORCA-job 14309optt
  Br  1.14420182430728     -1.37623774667614      1.00474092257509
  C   2.67746292310597     -0.45835144980315      0.39664968139198
  C   2.63367235236375      0.88002069437601      0.08876072506994
  N   1.43801733437352      1.55509844331905      0.13957759718089
  C   1.06657098216596      2.93200095981172      0.39488444166537
  N   0.01875572468853      3.17830080242715      1.09495597621904
  C   1.96603946041707      3.89081024951176     -0.16704077749409
  C   2.30873753118514      5.05151151815475      0.58031429422357
  O   3.22233693350602      5.83095758926744      0.30670120545682
  C   2.81856112246824      3.39101615935965     -1.21687976629843
  C   4.05349731780839      2.86821907581162     -0.64753010871285
  N   5.13774921916173      3.39642258552477     -0.30244843442638
  N   3.85107161283184      1.44837220273021     -0.29216589865978
  N   4.98660076422529      0.72450331084173     -0.38803515233815
  N   5.02264692267584     -0.49473056566987     -0.15444424080961
  C   3.87566503298718     -1.22623748494453      0.26528558116673
  N   3.96915543355824     -2.47887198588203      0.49709900260014
  H   0.69271385443565      0.92184345677433      0.39444699565935
  H   -0.34138667867948      2.33862614364629      1.54409866952186
  H   1.68746060917620      5.21754040869527      1.47807633722477
  H   2.35949084518610      2.74284544581773     -1.95817517009624
  H   5.11108558300566      4.37102836397978     -0.60321906193796
  H   4.93389329504581     -2.75868817707354      0.32734718081795
