27
Coordinates from ORCA-job 14311optt
  Br  1.11549181124235     -0.15600155569097      0.25757994360433
  C   3.04316800964117     -0.18328821859274      0.52439282952472
  C   3.77000680702920     -1.34066678610561      0.21946317061760
  N   3.18791038301680     -2.60481587103564      0.38499267637414
  C   3.87201395154443     -3.60910855364677      0.00979516044664
  N   5.14245527081935     -3.55466615233496     -0.54937898365381
  C   5.96505004121346     -2.40243843539702     -0.21247342654615
  C   6.63867349405891     -2.58280258978907      1.14475558912508
  O   7.47290223774607     -3.73612923339237      1.10452823438655
  C   8.02890033027260     -4.04436836747108      2.34506772651917
  C   8.86646681223989     -5.29016870514269      2.19945719229297
  O   9.43521855307147     -5.82194812942794      3.11179961784066
  C   5.09770366485532     -1.17317228529093     -0.17875798552366
  C   5.63853081610027      0.09018441562184     -0.39271664937993
  C   4.84050924414870      1.25737885285444     -0.21010908665386
  N   5.12181670464372      2.49130719694823     -0.42871472877434
  O   3.57285121531887      1.05899181607081      0.31592697500331
  H   3.43760773624399     -4.60443659851188      0.06220910113058
  H   5.64165067409841     -4.43112325796692     -0.53961509474914
  H   6.74483643959853     -2.29447225491291     -0.97195963478025
  H   5.86513991807112     -2.71152732979005      1.91280769665922
  H   7.23361616177116     -1.69610995194404      1.38831377656484
  H   7.25883361591503     -4.22616520502550      3.10737475517015
  H   8.67250411484861     -3.23508317750922      2.71905937428758
  H   8.92280836031651     -5.68733826306206      1.16760628098547
  H   6.65901909005185      0.21818309051919     -0.73004572870141
  H   6.06331454212197      2.53678555002595     -0.80835878177048
