27
Coordinates from ORCA-job 14322optt
  Br  4.61194288566446     -0.30539469814431      2.19348595382028
  C   3.04982590832529     -0.63358327627179      0.16745888888663
  C   2.52796337032810      0.59223657976302     -0.23336986128069
  N   3.26204006425331      1.79639073006374     -0.44130001179939
  C   3.44476804034224      2.66286674290012      0.65539263244910
  N   2.79607703856983      3.73206294527823      0.86516461437038
  C   1.59050466286366      4.02538755012823      0.09172126942553
  C   1.81589380524624      4.58491368553519     -1.31069105942521
  O   2.47152869955780      5.86417807567845     -1.25649528551862
  C   1.70854266132532      6.91860829906763     -1.01627399436678
  O   0.51896992373890      6.91901187315724     -0.86767400400910
  C   0.51640922226003      2.91333824991938      0.09350895527912
  N   0.57393308570528      1.84827349679254     -0.92816513539455
  C   1.17564704871074      0.62757018435241     -0.54565570319110
  N   0.41186724165020     -0.46889374134708     -0.55040395005546
  C   1.02691221518811     -1.58752940542357     -0.18849275413300
  N   2.29370824031076     -1.71325901824511      0.19407672930555
  H   2.77848006908978      2.28682098668363     -1.18100042806831
  H   4.22251594765440      2.35303288480449      1.34714404214872
  H   1.10655512464354      4.84059403386921      0.63718187608228
  H   0.85674443945308      4.69971196229577     -1.81734222383751
  H   2.47223541587735      3.97709305036194     -1.92601238705547
  H   2.33155692192246      7.82134573734415     -0.98312464786941
  H   -0.43809216441841      3.42173066698349     -0.05763312491439
  H   0.50514164442694      2.48224231289142      1.09937511677204
  H   -0.36132529976816      1.62797093954049     -1.24386309143410
  H   0.42665378707869     -2.49272084797896     -0.20101241618652
