20
Coordinates from ORCA-job 14326optt
  Br  1.31749725477947      0.86201288639593      0.07603637566121
  C   3.12862324377933      0.38206151054802      0.07801746606702
  C   3.54068233683509     -0.91000835519311      0.06065171324163
  N   2.65763310221642     -1.95618449847780      0.03827513861411
  C   3.05254146924611     -3.20882367891909      0.02195983638418
  N   4.22732992124890     -3.85347943038961      0.02233422360126
  C   5.47156868020506     -3.43831209997860      0.03876063975212
  C   6.57874657678623     -4.36835833889997      0.03953657750832
  O   6.45638822446050     -5.58576339051836      0.02504379440817
  N   5.82539425591664     -2.04587550052135      0.05867809891117
  N   7.10524189801356     -1.59997366636809      0.07240740557981
  N   7.09566438869008     -0.31192739850428      0.08991897165245
  C   5.80865679896205      0.10206214632347      0.08823021657014
  C   4.98368763038694     -0.99672820926751      0.06804091402265
  C   5.29315774267560      1.45024076821076      0.10489961442270
  N   5.89720326409551      2.55887968392600      0.12408250414360
  O   3.91645766367930      1.48785128947216      0.09833725653159
  H   2.21479616498206     -3.90379014456521      0.00445937611988
  H   7.57532846332378     -3.90615648243992      0.05566108751356
  H   6.89840091971735      2.37627290916654      0.12666878929444
