21
Coordinates from ORCA-job 14327opt
  Br  2.24110146882210     -1.31825681060458      1.66162328572695
  C   3.11251800040448     -0.03978473593199      0.61201449861496
  C   2.50020460565000      1.19194034115225      0.29680805429295
  N   1.28423599930826      1.43228460170245      0.78413499737550
  C   0.52079098348615      2.39710023360599      0.12582160745615
  N   -0.87113963821792      2.38964102321243      0.60141498866324
  C   -1.19737423004884      3.56691074094529      0.92407291938279
  C   -0.10045937801653      4.57664696242878      0.76061396040391
  O   -0.12962395696115      5.77582446614281      0.98169793374048
  N   0.92951386706408      3.82661916247043      0.30923761659526
  C   2.14510090480933      4.30179417470673     -0.11772607249245
  C   3.17119520154942      3.51007654708444     -0.52272815126863
  C   3.30482031870748      2.09464171437618     -0.46764579618815
  S   4.66362741454454      1.49017178793606     -1.41618589055237
  C   5.24495471019612      0.12041320503876     -0.49312893013313
  O   6.30139306450502     -0.40106982480425     -0.71261162035880
  O   4.44584642435010     -0.35047439879644      0.48366360734294
  H   0.49058378304520      2.25248037547669     -0.96863700026363
  H   -2.18275417260964      3.83407360980361      1.29147857481149
  H   2.21016295885990      5.37998581832909     -0.17182117692641
  H   4.02030167055174      4.04298100572510     -0.93709740622308
