21
Coordinates from ORCA-job 14339optt
  Br  2.86718661219688      0.53965202837405     -2.69977359913195
  C   3.85342598457059      0.43853352010240     -1.03508242318590
  C   4.49488375464348      1.57062369896547     -0.53998916533007
  N   5.48516895467182      1.29960132865486      0.51153221492398
  C   5.50070400486345      0.01707368434892      1.14895640143568
  N   6.33717729252331     -0.37364561980030      2.04870630480862
  C   4.55852676006953     -0.92764278045291      0.62186535259797
  N   3.87546533842877     -0.76032976426429     -0.50729125684356
  C   6.57461130288917      2.17671720134166      0.67724193205912
  N   7.17834896087152      2.49706894348848      1.75337657276704
  C   6.72898883530996      2.86888610052621     -0.61241223306871
  C   6.17442131909633      4.08306438380955     -0.64188749553949
  S   4.86238928936440      4.23220280941323     -1.78883739387939
  C   3.91781802894282      2.89474682844544     -0.91844882837115
  N   2.68440152651305      3.18200735267202     -0.85502603733529
  H   7.03585219330392      0.31877570096362      2.27994888078603
  H   4.55514126229873     -1.90184592861359      1.09030371998477
  H   6.72088986178102      2.08321157659806      2.56134505590353
  H   6.69854791229072      2.25240792388127     -1.50457562311580
  H   6.12281713393360      4.68097667907422      0.26133762249791
  H   2.17123367143686      2.41991433247160     -0.41029000196334
