22
Coordinates from ORCA-job 14336optt
  Br  1.26873132598362      0.69562703519912      1.46699219520898
  C   3.00476406604092      0.19614771249574      0.93876010901710
  C   3.66074841926335     -0.87794383408837      1.47904356874787
  N   3.03582333912414     -1.73708127190294      2.35242020602088
  C   3.38427709893865     -1.98288285537897      3.73595717413768
  N   2.44162373546921     -1.93372906124083      4.63295293194436
  C   4.71042616383758     -2.30274609925052      4.10190424721092
  C   5.82782132955106     -2.57908122865172      3.30905342516328
  S   5.76269879961701     -2.70124597002588      1.65334526603061
  O   7.06278721670165     -2.61082599413259      1.06265153658700
  O   4.80694800886401     -3.62956387184984      1.12803128261838
  N   4.97587873641545     -1.13201832069943      1.16272237652907
  N   5.80946647293807     -0.21863466885507      0.67741224245990
  C   5.38424073595923      0.83255117334784      0.09813044724561
  S   3.70912709568536      1.13292755845147     -0.32642437179550
  O   3.40810869507993      2.53058085735432     -0.14839222905988
  O   3.45664804161969      0.56639770132484     -1.62568734097817
  H   2.03331724963209     -1.70712488287752      2.24510845967083
  H   1.56771063837857     -1.59969889310784      4.23310961259307
  H   4.85376560905346     -2.31507274682186      5.17400253550578
  H   6.83583602571863     -2.56607804757609      3.69145197106997
  H   6.09625119612826      1.57649570828613     -0.23854564592777
