22
Coordinates from ORCA-job 14342optt
  Br  2.00469802178461      0.45979767464711      1.54037082559309
  C   3.66682616086002      0.32509895667838      0.60519776085968
  C   4.61904035557301      1.33598592822871      0.70543722742499
  N   5.64953357550434      1.26391750785197     -0.31670519765358
  C   6.00185747376183     -0.02575669352747     -0.83622614156444
  N   7.12560014452241     -0.25672574911289     -1.41961946966499
  C   4.96359444891600     -0.99789414475333     -0.72126887162497
  N   3.80755655227231     -0.77734965380634     -0.10064409828385
  C   5.77928346299790      2.35511100838817     -1.15666178305973
  O   5.69105419410912      2.07823392452701     -2.51816848838638
  C   4.52117387590019      1.58559664062943     -2.97596694165310
  O   3.48875873996016      1.58847181766565     -2.38693190222042
  N   6.02818439162534      3.55031498635244     -0.84406174476615
  C   6.33190279296192      3.87124093579079      0.47887363276623
  C   5.84498900801340      3.33215493802630      1.59967231449689
  C   4.76297658924495      2.31671236458236      1.74131202125694
  O   4.05847627963637      2.39062282113875      2.75052235386734
  H   7.72110112734975      0.56883845923972     -1.38690165120744
  H   5.13028925803243     -1.96586779897961     -1.17556087176074
  H   4.67036263441846      1.20886821179780     -3.99409761811522
  H   7.01204958293843      4.71349146283651      0.55441533624217
  H   6.13669132961701      3.77513640179853      2.54501330745366
