28
Coordinates from ORCA-job 14343optt
  Br  2.47510636740759     -6.56922906402769     -0.67545740931582
  C   3.86437294270019     -5.43799001657076      0.12213591865772
  C   4.63780999279134     -5.96938297068905      1.10937079777117
  N   5.48751247271833     -5.00712470711906      1.72378632334822
  C   6.12729751433837     -4.08264309705738      0.88033800374097
  N   7.29909052605659     -3.64662198276852      1.23996585827390
  C   5.35403469292529     -3.79375460187202     -0.28667058772598
  N   4.11324015204462     -4.29625063332990     -0.50435608083395
  N   5.98509445999367     -3.04358880057791     -1.31173918661281
  C   6.88544473273417     -3.63829260937932     -1.98427172082590
  N   7.29254510380518     -4.95780296940471     -1.99120488872227
  C   6.48139144055268     -6.12785138337666     -1.65636399057149
  C   6.92239968422262     -6.90185431904227     -0.40248338636488
  C   5.80479374159156     -7.85991535053769      0.11427494771947
  N   4.94126773481119     -7.34373004457729      1.20909911651432
  C   6.36004132607239     -9.14613694011982      0.54215302824477
  C   6.81334535596538    -10.18721866636417      0.92984747503013
  H   6.09309168874699     -5.33206090113136      2.46308566284598
  H   7.60250797956118     -2.94176349987361      0.57325354139582
  H   7.47634536869494     -3.03421350580984     -2.67621973676947
  H   8.06047880760931     -5.13303132763767     -2.61515100413446
  H   6.51971719263983     -6.80999005314115     -2.51272967497088
  H   5.44671308651612     -5.81185384492793     -1.57261376663288
  H   7.21341348408562     -6.20523359232806      0.38188145698971
  H   7.80595500605065     -7.49584535178025     -0.64570555195328
  H   5.12858720332772     -8.06434668255514     -0.72524141434647
  H   5.31651321605239     -7.60309191912766      2.11173268562541
  H   7.20588872598396    -11.11518116487300      1.26728358362293
