24
Coordinates from ORCA-job 14340opt
  Br  1.96190822901061     -2.74566297862083      0.63484430580173
  C   3.56569304873527     -1.77994090116381      0.38292272574472
  C   4.14366199320587     -1.58069969706170     -0.80910582447321
  N   5.11163408680999     -0.54271119637760     -0.92117331070496
  C   5.89912230537121     -0.15672243572098      0.20261780273791
  N   6.78646036140667      0.74727972857665      0.18773380935623
  C   5.60863683838230     -1.11236452372560      1.30379014213553
  N   4.21781121786358     -1.33499972214972      1.54819769388668
  C   6.44007220086825     -2.16242731757382      1.28572919940264
  N   6.02124247088225     -3.49624517596126      1.40239887555226
  C   5.80638154619900     -3.93965824727720      0.01717699527551
  O   6.60520450120761     -3.57114039362033     -0.83697269256488
  N   4.71542365517387     -4.69107163234414     -0.11391485160310
  C   3.97267996476002     -4.69739103330399     -1.22471947790167
  C   3.61578369693108     -3.66638408977462     -2.16247601083958
  O   3.00905835847741     -3.93634835437140     -3.20903871897944
  N   3.90911796585107     -2.28927093010623     -1.97485101922106
  H   5.67907903955208     -0.66269407976620     -1.75137873265438
  H   6.83733065667537      1.18059887390617     -0.73462628959603
  H   3.74710614434859     -0.57347992354212      2.02302010545975
  H   7.43344110872225     -2.02838219749891      0.88041369338867
  H   5.12832754098321     -3.56564090948745      1.88012215200364
  H   3.42172125674906     -5.60770875116625     -1.44083642716492
  H   3.63210181183285     -1.76093411186844     -2.79087414504202
