21
Coordinates from ORCA-job 14351optt
  Br  1.03076905064775     -0.28066126496631     -0.09057263660276
  C   2.91063874336466     -0.12865998171472      0.05506250657925
  C   3.61371993800014     -1.27691669428444      0.00585341413742
  N   3.17953333909667     -2.59025137186618     -0.08100321020469
  C   4.22313725336095     -3.48839314889936     -0.10911901292826
  N   4.20712672882452     -4.75428343568767     -0.17737288007072
  C   5.49043651161892     -2.65648731365559     -0.03893603031794
  N   4.97843148212968     -1.30314020661041      0.03100776275660
  C   5.78671190982006     -0.16518938759625      0.07410930624749
  O   7.00318135627236     -0.31018620886667      0.06386638294400
  C   5.03269855557699      1.05965198386180      0.18250480904533
  C   3.63763921680172      1.11014597050940      0.16096460962991
  C   2.95078922322809      2.39186102197976      0.12869748160120
  O   1.78572581321305      2.58234142220169      0.50758985814015
  N   3.60139945555884      3.38240199589730     -0.63392480313697
  N   4.81712813374194      3.58908980933329     -0.71270695070165
  S   5.89765717868138      2.55647453729377      0.32110255100237
  H   2.20015303163159     -2.82041380524884     -0.12050348899224
  H   3.25613280332287     -5.11604852706573     -0.21464013618733
  H   6.11289963432881     -2.80245963814448     -0.92253396095898
  H   6.08609064077894     -2.91087575647036      0.83855442801781
