22
Coordinates from ORCA-job 14359optt
  Br  0.73134511564076      6.59891274924157     -0.07304745502134
  C   2.39505442608083      5.73278826982847      0.13776848721637
  C   2.52357462670411      4.38036771361112      0.13536993286984
  N   1.37142638316855      3.64197645264186      0.02966181474415
  C   1.31198812110256      2.34172890569925     -0.11326064208530
  N   2.20099846422940      1.34736718388207     -0.23150788842722
  C   3.52349679386573      1.53911950726076     -0.15718485231405
  N   4.29580522583847      2.58389362427116      0.07748781467141
  C   3.90713463825090      3.84862154690361      0.27348879119972
  C   4.94554746489991      4.79202824936547      0.58388497945187
  C   4.69906573462188      6.15218006454747      0.58646190196693
  N   3.44351021179235      6.62407066678307      0.28501390023989
  S   5.94324154309332      7.34033260232821      0.90028099463861
  C   6.91341750540380      6.79317647280119     -0.51203760763904
  N   7.49207654704422      5.67218761259513     -0.54792107094956
  C   7.29950939172498      4.72337031844156      0.45590600044347
  N   6.19903421537193      4.28784275571799      0.92164225594037
  H   0.28251541038785      1.98164223846432     -0.16366950586796
  H   4.09297318848348      0.62250040999440     -0.30988212865508
  H   3.22142073087534      7.58052101005952      0.50538670224842
  H   6.95960578655836      7.45769240824366     -1.37234280989808
  H   8.21425847486119      4.22067923731804      0.76050038522659
