22
Coordinates from ORCA-job 14357optt
  Br  0.87331201960006     -0.12535102720404      0.24627520306447
  C   2.75055490723872     -0.02836067536814      0.29898919954908
  C   3.43806856380221      1.08909383115565      0.59374103079001
  N   2.73121096187328      2.27546077619645      0.73828232501259
  C   3.18699886231002      3.34582893169677      1.29087319544625
  N   4.34590742764360      3.68501967702088      1.91597038330416
  C   5.41083331207617      2.90622027255753      1.91467233382671
  N   5.73413931570957      1.75805205903252      1.33951893785394
  C   4.90921463713757      0.93996259446953      0.66493799264735
  C   5.48376601226180     -0.19917206073591      0.05240253158725
  C   6.83310535536353     -0.52447556517309      0.23533916581996
  C   7.48877262499189     -1.66754990384690     -0.28139823949209
  C   7.06547385082286     -2.36775219260417     -1.35449683921481
  O   6.00507919393782     -1.93331413893326     -2.10398194652138
  N   4.74985766581186     -2.06384622961701     -1.44535296180108
  C   4.57009667522344     -1.17024795784772     -0.55360705876966
  O   3.30740183229344     -1.22839067939593     -0.01822790852326
  H   2.47370765070598      4.17134899913008      1.28554168990989
  H   6.23780862300323      3.32080934595377      2.49390254210043
  H   7.37521251881797      0.12899844283041      0.90446652792880
  H   8.41100896330354     -1.98947365410736      0.18946559357372
  H   7.57046902607131     -3.24286084521006     -1.74631369809235
