25
Coordinates from ORCA-job 14358optt
  Br  1.19409084002132     -0.49549501042623     -0.07703935353884
  C   3.10966189388462     -0.24925242768453      0.05948387534098
  C   3.60026837224237      1.06687052868503      0.11967312911597
  N   2.68181086776500      2.08483832028227      0.09495541262050
  C   2.91024949506906      3.34586124254180      0.13124355025993
  N   4.10691716689708      4.03198554658796      0.20069800298416
  C   5.39277083621535      3.53090995694212      0.26257211642965
  N   5.79937394426282      2.30194601578897      0.26137862722805
  C   5.04379621433609      1.16860922504588      0.19979855909155
  C   5.77868778213780     -0.04938965290982      0.21643484964315
  C   7.27566799874369      0.01670601061165      0.29489723408612
  C   8.01473957398516     -1.29721809779843      0.28341270162895
  O   9.23696604131348     -1.34233089303881      0.31778620982040
  N   7.28345935577188     -2.43524729346331      0.23469318456947
  C   5.84103976915658     -2.57150540156218      0.19034504238172
  C   5.12706125945387     -1.25257637986004      0.16088589055590
  N   3.78191326980300     -1.36381147658642      0.07928339083063
  H   2.05576170185379      4.01771158872680      0.10458202477978
  H   4.03022049413317      5.03470229235486      0.21972979778544
  H   6.14067979594567      4.31550554782571      0.32239194630564
  H   7.58938283227601      0.55470544128005      1.19305260322786
  H   7.67436596584983      0.61722744913164     -0.52590792194094
  H   7.84237127593160     -3.27466088041554      0.23373405830732
  H   5.49541089303675     -3.13953672638684      1.06082570591812
  H   5.55133235991388     -3.14655492567260     -0.69491063743149
