23
Coordinates from ORCA-job 14354optt
  Br  1.02223450190140     -0.37945851814465      0.02406779945615
  C   2.87918301547253     -0.10231127819351     -0.23373943992504
  C   3.65763205046407     -1.20191077503517     -0.21642962209372
  N   3.33724355824629     -2.53775424531741     -0.04367502265520
  C   4.45611930565857     -3.34374259267957     -0.03333821388752
  N   4.54527298548730     -4.60269448580421      0.09888387608279
  C   5.64342660875721     -2.41505241960540     -0.21440301130108
  N   5.01231849810393     -1.12505986677124     -0.36774738813740
  C   5.68792245932365      0.12637712324329     -0.36734252248085
  O   6.91400040269300      0.08102892743675     -0.34903954277730
  N   4.91919302431738      1.22069431797644     -0.39827564100280
  C   3.56285359483149      1.16610870385619     -0.37609869812447
  C   2.81836928128674      2.38388906883192     -0.49240015800392
  O   1.60503128223294      2.52323030861173     -0.53798081463736
  O   3.65890738093002      3.50487286571619     -0.55587462220458
  C   3.08711364172757      4.71481324778039     -0.68074516687812
  N   3.75037753206226      5.78839349021065     -0.72731932981831
  H   2.38760058548803     -2.84649336997338      0.08334497777291
  H   3.62885771803711     -5.03245957522837      0.21119325080469
  H   6.23425422060122     -2.69508338993766     -1.08765544027514
  H   6.30096594835876     -2.44174285163352      0.65764844710048
  H   2.00383822424766      4.70339733382793     -0.73922929370623
  H   4.74628417977075      5.57295798083262     -0.65484442330798
