23
Coordinates from ORCA-job 14363optt
  Br  1.13708949988567     -0.22399430900202      0.44584429415016
  C   3.06169516784071     -0.06335684703285      0.34303927066039
  C   3.60546306821218      1.22809411772900      0.18937780344625
  N   2.73376530731256      2.27877463643876      0.10500193474979
  C   3.02103209947642      3.52136770937148     -0.04117066646324
  N   4.25044850966882      4.14405179824099     -0.14841964405121
  C   5.51457522862745      3.58765895132188     -0.13268757781279
  N   5.87142676741151      2.35111860897091     -0.01675738387909
  C   5.05664086101032      1.26314774149758      0.12753849447555
  C   5.71876321654892      0.02478074570284      0.21995774030574
  C   5.03478709755179     -1.15519446312247      0.35818049803346
  C   5.72575359811140     -2.48090887776215      0.42119472333397
  C   5.75957999066250     -3.12146317786288      1.78481827715833
  O   5.44193040291008     -2.65366512258793      2.83448671888765
  C   6.30239761208477     -4.52553815045238      1.75723864740556
  N   6.73883492280750     -5.58425779546844      1.70106232448830
  N   3.68457918053016     -1.20547453019746      0.42049359248852
  H   2.19966189326629      4.23122156250874     -0.09457095978181
  H   4.21965087993276      5.14404141181479     -0.25215848620268
  H   6.29495577599163      4.33523884033249     -0.24059704117958
  H   6.80126625301584      0.04030266324158      0.16945233615623
  H   6.76959791882151     -2.41446228225068      0.09374370001942
  H   5.24010474831907     -3.20448323143178     -0.24406859638894
