20
Coordinates from ORCA-job 14374optt
  Br  1.23677564172458     -0.05783047406710     -0.08440746066789
  C   3.11640667071749     -0.06113294535358     -0.07774493413797
  C   3.86772606132591     -1.20335928638420     -0.07559323013432
  N   5.29484953513705     -1.12860114588171     -0.07248131841345
  C   5.84288991588974     -2.44819209573656     -0.07124299318309
  N   7.05725240962424     -2.78611332900663     -0.06924971919289
  C   4.69361977085794     -3.39615129236967     -0.07290974103327
  N   4.80140813467002     -4.67319562780202     -0.07188557825871
  C   3.46119343892723     -2.60685231807635     -0.07567419465452
  O   2.29877868870615     -3.02837547369462     -0.07779068313194
  C   6.04749886369071      0.02127991260375     -0.07129214541412
  O   7.27059964383884      0.03794217670334     -0.06954049365036
  C   5.22126576524288      1.22220430781526     -0.07207261605644
  C   5.51901369703122      2.53868637550681     -0.07000736856712
  O   4.40066901484882      3.25686632728611     -0.07184186802733
  N   3.29149276144563      2.40634127509243     -0.07512964722098
  C   3.79272923928874      1.19250573902721     -0.07522368349926
  H   7.66255392087984     -1.96826700141923     -0.06856314031985
  H   5.79945625795272     -4.90063915007387     -0.06976589915551
  H   6.45082056820021      3.07988402583065     -0.06758328528095
