21
Coordinates from ORCA-job 14370optt
  Br  1.08276602517717      0.05418127749542     -0.06629219333847
  C   2.98050070288858      0.01052159995385     -0.06855143994150
  C   3.69057142323121      1.23251361307938     -0.06988520092139
  N   3.05709271503793      2.46123911928309     -0.07026188343034
  C   3.78012390768656      3.59821595679621     -0.07160872060470
  N   5.06600473680142      3.66133670341335     -0.07253157498221
  C   5.82710045536662      2.48039106148678     -0.07218468884679
  N   7.10203903053938      2.50966384741415     -0.07279686497914
  C   5.09314523952934      1.17632111230286     -0.07101634333199
  N   5.76039467109562      0.04537465206411     -0.07097534416704
  C   5.09154286348714     -1.14875613262568     -0.06997984952837
  C   5.88245578643381     -2.32636177758026     -0.06996616062443
  O   5.46953115183785     -3.50535207935250     -0.06902188003302
  C   3.09577962167342     -3.55063798917571     -0.06816763609719
  O   2.95839359515335     -4.70555479920706     -0.06829211275769
  N   2.91798715781711     -2.35421529688125     -0.06783219911916
  C   3.65107622148267     -1.18399049994512     -0.06878024705957
  H   2.04989575467619      2.49084157784514     -0.06956345918721
  H   3.19578019355070      4.51382331635896     -0.07189845466189
  H   7.38133896631691      3.49098640970681     -0.07353313215457
  H   6.96347978021697     -2.11454167243251     -0.07086061423333
