21
Coordinates from ORCA-job 14371optt
  Br  1.13746081471808     -0.17976683460857     -0.02316846759830
  C   3.01402404381895     -0.12339732695601     -0.02416809129462
  C   3.70616358455048      1.05524034627918     -0.02497880932934
  N   3.07093088022150      2.28689572717485     -0.02534005349594
  C   3.80786033609784      3.42996095446294     -0.02618899752969
  N   5.07925591198492      3.49219307696523     -0.02664025312449
  C   5.84257635166686      2.29115368162716     -0.02633498212899
  N   7.12427964036715      2.34431999431526     -0.02662820213911
  C   5.11737460989797      1.02259520885843     -0.02550527524772
  N   5.78528771598444     -0.15045821207363     -0.02522103374351
  C   5.14534631294727     -1.30583678669362     -0.02454276924852
  N   5.80862407594122     -2.45249280156614     -0.02459909357061
  C   5.15192763619327     -3.63749007561321     -0.02418567894349
  O   5.69692797426142     -4.73704028518555     -0.02416995185499
  C   3.67828597913313     -3.56624696382576     -0.02362810572145
  N   3.01751469700122     -2.46555371079368     -0.02358484727997
  N   3.71975757322564     -1.33069139977813     -0.02405576805240
  H   2.06470024260484      2.32024336495419     -0.02515235868192
  H   3.21955260243973      4.34459403583740     -0.02646371471543
  H   7.38498347662960      3.33010778393913     -0.02714379104151
  H   3.10116554031443     -4.48232977731949     -0.02329975525801
