24
Coordinates from ORCA-job 14372optt
  Br  3.19934707729903     -0.03319796232289      3.29503096098450
  C   3.61043785946542     -0.36054067974875      1.46560877815821
  C   3.27806969787617      0.48795157184280      0.47325863554946
  N   2.65924078884772      1.73077904334929      0.74451219422221
  C   1.47912511333864      2.14942411841870      0.17147091933757
  N   1.34221839737465      1.90508148359239     -1.16030233494158
  C   2.35820911357795      1.58165975490693     -2.09888200166788
  N   3.36785723067712      0.78645439003551     -1.96193051799423
  C   3.75785469116173      0.13239304358949     -0.85967967719593
  N   4.67477666124690     -0.85352248031059     -1.02349963515516
  C   5.03173198593845     -1.65402639663903     -0.02340481142715
  O   5.87900907736299     -2.54397632706134     -0.04455137861619
  N   4.33697572851912     -1.49159089243596      1.22385534851143
  N   0.63827588371358      2.78303495225461      0.92703772495413
  C   -0.48299407419687      3.41487439400695      0.27652427659030
  C   -1.53795698613337      2.38805861858093     -0.06411584732631
  O   -1.99920101489802      2.21857185535722     -1.16342938069934
  H   2.66891147576868      1.99300600912405      1.72020142144120
  H   0.46485539940880      2.18340674548770     -1.57212567494264
  H   2.15573429279986      2.00184066156566     -3.07672318916166
  H   4.70794907334619     -2.02802919827913      1.98999580785943
  H   -0.22939692816783      3.96505593024921     -0.63997285967875
  H   -0.93111566873843      4.12636223494339      0.97826753730152
  H   -1.83791487558856      1.74192912949280      0.78285370389687
