22
Coordinates from ORCA-job 14386optt
  Br  1.28431332623919     -0.00530198749394      1.04779319197615
  C   2.97121000706335     -0.09964861938708      0.20897226839132
  C   3.63339535266032     -1.28630148046732     -0.08988969472369
  N   3.30051691305758     -2.65066806469056      0.15317225940967
  C   2.12419052020583     -3.28814890150013     -0.23217977141864
  N   1.09864956468173     -2.80693649495921     -0.78702394481168
  C   4.52372936470471     -3.40964800278262      0.19534023512209
  N   4.69048794082959     -4.57235031604022      0.64415472013174
  C   5.61062556366189     -2.55402436429334     -0.45254494045913
  O   6.82447514546880     -2.46195277834082      0.28386329976514
  C   7.53605606977187     -1.29492561735033      0.04016754404140
  N   7.01069890423023     -0.11605044248106     -0.20977385399905
  C   5.69357583414612     -0.08191181812694     -0.36318239666591
  O   5.02121350905660      1.10993571439881     -0.31233162941077
  C   3.66480091204117      1.15548556538190      0.02767767643969
  O   3.18884285723682      2.25740540260114      0.15714995613160
  C   4.94340256490029     -1.23626358383525     -0.48785778968271
  H   2.15779615527676     -4.35744686682844     -0.03016879588479
  H   1.17337268203317     -1.80067971029115     -0.93002752326201
  H   3.84147104240502     -4.94575181909163      1.06560596565559
  H   5.84387982741977     -2.98194037646231     -1.43740818608979
  H   8.59329594290911     -1.41987543795947      0.21049140934379
