23
Coordinates from ORCA-job 14380optt
  Br  0.96491763205534      0.07866210325055     -0.25146276494269
  C   2.85273020894409      0.13730986581588     -0.13471133739713
  C   3.52284740109538      1.33649079819139     -0.06049565642072
  N   3.27565894369618      2.70342741426520     -0.03252955231820
  C   4.48432678817877      3.40225313558538      0.04316314707658
  N   4.45619664270256      4.78696528240247      0.08387077295648
  C   5.58272888185124      5.56267982738987      0.14626834045433
  N   5.65465461171082      6.83243604783725      0.19711463960396
  C   5.55146898161073      2.49699518894233      0.06621892598974
  C   6.94006391782053      2.07746612331754      0.11271892908349
  N   7.05594446095024      0.74806730578389      0.08071515342178
  C   5.77945650995935      0.21884813836188      0.01280887564457
  C   4.90266230734859      1.25726134051940      0.00545619740307
  C   5.18480178696368     -1.10243828261472     -0.05821648395525
  N   5.76881611805906     -2.24133090088127     -0.07371872301781
  C   3.60698838753082     -1.12173436719219     -0.13011100604332
  O   3.04077340053520     -2.20188547352806     -0.18195811738033
  H   2.36197834283284      3.12352895342108     -0.06681147130958
  H   3.56271724348323      5.25393058492424      0.07498411253468
  H   6.49563223155852      4.96951371248241      0.14933962327893
  H   4.72917698756577      7.26284703507290      0.18888981310587
  H   7.82218040740930      2.70053553407381      0.16330340980917
  H   6.77627780613771     -2.07582936742128     -0.02383682757761
