22
Coordinates from ORCA-job 14389optt
  Br  1.57213062826717      0.34884849037308     -1.96575087990869
  C   3.23443945676724      0.29050699735313     -1.05260548647894
  C   3.64613217117936      1.27762750449971     -0.25204217010403
  N   4.93731347135518      1.06683305410525      0.30465519749899
  C   5.89149179085917      2.01956494563851      0.32420318301351
  N   5.88274907430883      3.25182462832569     -0.05213075820111
  C   4.78167938275216      3.99541196990439     -0.42012885361626
  N   4.94227325980170      5.01927754752847     -1.17265077695795
  C   3.44031457117822      3.68920737026558      0.14763122521963
  C   2.89010910272155      2.46897658536145      0.17987842696927
  C   1.57180943202483      2.30036874266268      0.71781188843714
  C   0.47958010515906      2.15937598034629      1.19484416665965
  C   5.25619132672762     -0.29153100881433      0.71357914641654
  N   6.00307567241716     -0.55446680390913      1.76181540999997
  C   4.75264530503344     -1.31120265156322     -0.13616402041711
  O   4.88842485916182     -2.51149444379252     -0.10714228748455
  O   3.93075946899684     -0.80757540672254     -1.26292500288891
  H   6.83304613731498      1.63163902235371      0.70466132330766
  H   4.04753767561087      5.48815518555454     -1.30449083053730
  H   2.86163146394030      4.53502329423072      0.50272243668100
  H   -0.48910993800262      2.02147085964471      1.60979656781644
  H   6.17277558242505      0.29915813665380      2.28843209457503
