22
Coordinates from ORCA-job 14385optt
  Br  1.22356703493011      0.01542107240282      0.77568157693920
  C   3.10367796253598      0.00083317203255      0.33344931795641
  C   3.66815197771558     -1.21085769838512     -0.01709632008701
  N   3.00290120473541     -2.48056119848008     -0.10792017845304
  C   3.60772702659907     -3.39543179638481      0.80409222779305
  N   3.25105803517523     -3.51300961715364      2.00784021365883
  C   4.78426810044717     -4.21498357445160      0.29963201779582
  N   5.51614069641115     -3.56217369333277     -0.78521703268300
  C   5.95803470792507     -2.23734248811975     -0.59787190654075
  N   7.21538075121013     -1.91881620503785     -0.81877287783952
  S   7.40596013649210     -0.26622280243016     -0.63071267006952
  C   5.75650030323393      0.03874416996105     -0.21779999162288
  C   5.07982253087439     -1.18043949967285     -0.26098172803134
  C   5.05273009197139      1.20600466455374      0.10126961624141
  N   3.70186215635926      1.16153401190381      0.40549581958858
  C   5.70829536148619      2.46127226859780      0.12583442614684
  N   6.28348733226305      3.46369095738361      0.13250542880333
  H   3.12875444687278     -2.82933386500538     -1.05504474801797
  H   2.44437319303185     -2.90649921531264      2.17091984144372
  H   4.40188279828463     -5.16450991149059     -0.08670755548426
  H   5.40563215100613     -4.43577030680732      1.17254881217328
  H   6.29279200043934     -4.12754844477078     -1.10114428971117
