23
Coordinates from ORCA-job 14382optt
  Br  1.05151947696304     -0.22303049665128      0.31777119287159
  C   2.95174464900121     -0.15151796176539      0.22621176804709
  C   3.67501373511891     -1.35223216216607      0.35534301983807
  N   3.27150956306042     -2.62170245540025      0.07129712856129
  C   4.33689285372946     -3.39393796372447     -0.07920146217936
  N   4.27148043296319     -4.77101291405406     -0.22893807957704
  C   3.14795400398240     -5.54441688533007     -0.44688494165878
  N   1.93288996217357     -5.19175298839800     -0.50646372953166
  C   5.64087580096087     -2.70523244880204      0.26793754551262
  C   6.86713899303360     -2.45316757434074     -0.63266800943996
  N   7.67260624065514     -3.24186609822834     -1.21416746691832
  N   7.05564771106200     -1.07014233553196     -0.61735787119322
  C   5.90729550678687     -0.41971924609147     -0.12825461432135
  S   5.38683338140604      1.18920158047828     -0.46294796641162
  C   3.49843917985303      1.10863133709339     -0.03495846440529
  O   2.99941939990314      2.21095100413140     -0.12669714433562
  C   5.10015544593383     -1.32561074262978      0.43875264948380
  H   5.15415419910647     -5.24851583476469     -0.28810495769206
  H   3.41166686878536     -6.59536630917189     -0.57748532936305
  H   1.84290149612765     -4.18456838369231     -0.36251030072680
  H   6.04753751075536     -3.14055758579167      1.19588297473351
  H   7.36107463545346     -4.20362138666143     -1.11772102074830
  H   7.70124895318493     -0.63981214850714     -1.25983492054554
