24
Coordinates from ORCA-job 14391optt
  Br  0.59890319476847     -1.28207052297760      1.18249726204836
  C   2.10821534194335     -0.45228111974729      0.37284152688337
  C   2.11687472192856      0.92548354557206      0.17572531753641
  N   0.95772628257104      1.59651365110641      0.56711190506956
  C   0.79952160185847      2.84097996732237      0.72606569352540
  N   1.63944108733867      3.91722092075676      0.57911573954817
  C   2.80545204855273      4.03623931082523     -0.22109166252568
  N   3.25208488148747      5.21044847315928     -0.51388218616180
  C   3.48479432426430      2.86723437177504     -0.67395117976068
  C   3.25216347878889      1.51445804902634     -0.44022579505557
  C   4.33427357213891      0.60305154760096     -0.92740651667826
  O   5.29424724463158      1.04385130128852     -1.55314844018007
  N   4.25586220403661     -0.73890679091651     -0.64620728170643
  C   3.21495782371745     -1.23654395466377     -0.02465684751780
  N   3.20957247765373     -2.59905535432298      0.24764889182182
  C   4.16968720397665     -3.54845421763056     -0.06408346872240
  N   5.27449618002770     -3.43669774614973     -0.66630596925276
  H   -0.18247543471693      3.15970557279014      1.08010201107862
  H   1.21036826271550      4.80258510202014      0.79559396321778
  H   2.67273449150858      5.94101080945207     -0.10330530061148
  H   4.38207785889381      3.08884815764822     -1.23284482159091
  H   2.39646450418189     -2.94083187760293      0.73162903571785
  H   3.85815003574465     -4.53123823647719      0.29731884108042
  H   5.42140661198786     -2.46255095985501     -0.93854071776391
