23
Coordinates from ORCA-job 14398optt
  Br  1.12952036480510      0.55688234078172      1.75380643713092
  C   2.35871967536155      0.74872068172567      0.30773876459245
  C   3.42123328752442      1.54641277592665      0.49141534408186
  N   3.33263459321297      2.69771010890084      1.28336688398227
  C   2.19310899317695      3.47079391874807      1.06728668499300
  N   1.57011599932769      4.19255175722417      1.90090180418853
  C   1.84326078847587      3.54720855550793     -0.41112365584015
  N   0.97250554184031      2.98797246736679     -1.12021387664989
  C   -0.09369570853945      2.13085436458352     -0.82748780465879
  C   -0.17426321216075      0.82268910933766     -1.14058077231341
  C   0.94157848048247     -0.01780517770601     -1.54454950308770
  C   2.17457570138990      0.07252649665542     -0.95604197305918
  C   3.41936544252904     -0.38352701418619     -1.57521599395078
  O   3.47098295293804     -1.23399033931787     -2.47734536615618
  C   4.65169277971877      0.34080388080250     -1.17309571454352
  O   5.76569844908699      0.16538864113203     -1.59764122790415
  O   4.49875888173913      1.45765789592562     -0.30610240762418
  H   3.79494259265380      2.75985793047143      2.17951807750381
  H   1.94088011244032      4.06617042188864      2.84390947127263
  H   2.54163641071378      4.20709622069310     -0.93445157468839
  H   -0.97252862680995      2.65706929770593     -0.46792496037105
  H   -1.16597151293196      0.38475037090828     -1.06567553294207
  H   0.83324801302499     -0.68479470507593     -2.39249310395602
