23
Coordinates from ORCA-job 14395optt
  Br  1.30996552303011     -1.59476968222161      0.57892619369341
  C   2.96638187650097     -0.79539994194328      0.17818772434907
  C   3.12228527319575      0.53685677518984      0.27324713988970
  N   2.12959445767928      1.46500812420697      0.66096354079660
  C   1.60744570583061      2.12011048517768     -0.47626542996552
  N   1.82641469040681      3.31667034593888     -0.79912498614518
  C   2.75128656504843      4.09588654738286     -0.04353222585118
  N   2.40674965723566      5.28049065091319      0.34920047239585
  C   4.09646598755442      3.63773287671700      0.16429673803483
  C   4.78655017643821      2.42960754948240     -0.00115017468010
  C   6.19271212033541      2.33904157803046     -0.14672741173126
  C   6.58027804383751      1.02636252900384     -0.32826880514370
  C   5.42107997585631      0.21975534254690     -0.27523827828632
  N   5.30244889926251     -1.08693347669751     -0.38401616630936
  C   4.08585504404996     -1.68609010454345     -0.24023413272199
  O   3.89892256947728     -2.88347423433036     -0.40442745477245
  N   4.34300353644933      1.08758419668380     -0.06020583507802
  H   2.54575760866446      2.15069582589043      1.28760727222984
  H   0.97759855976875      1.48613905655250     -1.09660561770155
  H   1.45732365305403      5.46207940134357      0.02787092335059
  H   4.75742624706080      4.46146385931516      0.40617144510591
  H   6.82634071455297      3.21226866712480     -0.16032940328637
  H   7.56911311471040      0.63491362823592     -0.49534552817282
