23
Coordinates from ORCA-job 14397optt
  Br  2.45128943336035      0.92172293827739     -1.05456760413942
  C   0.96442256968826     -0.24149760090806     -1.86453663204802
  C   0.20663610968177     -0.80495081530305     -0.76998474497637
  N   -0.21388483653409     -2.08397373132576     -0.73111715862787
  C   -1.52906062231971     -2.45471361458335     -0.25388624846260
  N   -1.71814782282093     -3.43632920582679      0.53005851344313
  C   -2.64672587003700     -1.68077081368558     -0.82378583464733
  N   -2.34264966102582     -0.92563027361524     -1.80250953408103
  C   -2.97697600045957     -0.17061252606446     -2.70829687623463
  C   -2.17222101004999      0.44934675734864     -3.70285513128643
  C   -0.79503781208004      0.52744561821638     -3.56184630072442
  C   -0.18630797502429      0.59308635166080     -2.28981053933233
  C   -0.77808578692192      1.42078345415496     -1.25840674561126
  N   -0.69639396141281      1.20152822219907      0.00464906796076
  O   -0.22341248841975     -0.11317550504410      0.28406808683794
  C   -4.40531226382570     -0.18137135590330     -2.81107601569143
  N   -5.55630879165619     -0.21776781912614     -2.86932523356110
  H   0.19953466474816     -2.66437247295064     -1.44873716824578
  H   -0.82580365530885     -3.83399689157422      0.81749898448797
  H   -3.64197674035495     -1.84943857241065     -0.40749271427296
  H   -2.65050240024159      0.69737144320857     -4.64542449866071
  H   -0.15779872524413      0.43711721129843     -4.43698648735243
  H   -1.28427635374121      2.34819920195712     -1.50562918477364
