25
Coordinates from ORCA-job 14390optt
  Br  1.27289364856545      0.26136218124530     -0.58798915323318
  C   3.13868873373497      0.04360947589794     -0.23672744948884
  C   3.77211358820906     -1.16776815089057     -0.34671036634796
  N   3.03439891624507     -2.25415301143722     -0.82616756508111
  C   3.10786213122126     -3.61500779335364     -0.49712860952717
  N   2.04506508709319     -4.35305125009474     -0.46966539911072
  C   4.38565057521357     -4.25194130344313     -0.32094546558913
  N   5.60197790281976     -3.74478709718577     -0.41319781369172
  C   5.92881313622089     -2.46245980253615     -0.35985026117300
  C   5.19304225122747     -1.28707034804667     -0.09703784687786
  C   5.96758962939128     -0.12537152495911      0.36036545666563
  N   7.19213116090659     -0.10991283846245      0.78274265142436
  C   5.25428313073388      1.14727966457922      0.34636729026546
  C   5.70517432319521      2.41775713995576      0.61048457639315
  N   4.64136726147742      3.26196523577955      0.49753324557639
  C   3.50240461928974      2.56226336598034      0.17136355612400
  C   3.86056737092982      1.23571832802872      0.07003518289206
  H   2.09284534949350     -1.99310850477106     -1.07565351739598
  H   1.20837959935348     -3.78926370195056     -0.61106020008924
  H   4.30859445471118     -5.32446937830342     -0.18534472331889
  H   6.99742469846527     -2.30186870487798     -0.48061203780611
  H   7.57290470824770     -1.05022855722857      0.82723652958926
  H   6.69148687785659      2.76016857958902      0.87053232500608
  H   4.68113661382478      4.25476698928855      0.63375764799942
  H   2.55320423157271      3.05057100719668      0.03767194679509
