30
Coordinates from ORCA-job 14401optt
  Br  3.93150987876939     -0.66648075413234      2.28548039507454
  C   4.49456749627788     -0.78610050414784      0.47656778905222
  C   5.54270087665359     -0.05882433880391      0.04638737738381
  N   5.96178059147318     -0.19239678344652     -1.27097157762226
  C   5.71778231739732     -1.43938397235373     -1.87358414056509
  N   6.78404802967827     -1.94232943280873     -2.67680953521356
  C   7.77061221135478     -2.11502139604979     -1.64728948156081
  N   8.49896727053672     -1.09957016179549     -1.25145599891381
  C   9.17926322141163     -1.23472416520076      0.01288100680517
  C   8.92819788813306     -0.05032165706263      0.95734481183314
  C   7.54460978979049      0.06297360294631      1.62759592116177
  C   6.44152327982654      0.83099156218199      0.86261274379054
  C   5.68787003687161      1.82748628349030      1.72397303645655
  O   6.15036629472339      2.37309657747823      2.68921479165523
  C   4.58752104517079     -2.14025946067476     -1.52415717208729
  C   3.80543953756462     -1.77639702539552     -0.38052382510481
  N   2.66622809254891     -2.27724153185413      0.00618101324362
  H   6.95792035184169      0.03511343119147     -1.36344271662871
  H   7.10779333053474     -1.25054664291599     -3.35220056114902
  H   7.67890688418410     -3.05045173194373     -1.09729220168294
  H   10.26518572747682     -1.28738829331904     -0.14928779335762
  H   8.89572787618525     -2.16287406567287      0.53511274508456
  H   9.67040163396742     -0.12092078556585      1.75998255050585
  H   9.15096184735898      0.87433223972730      0.41495630498082
  H   7.67413883624608      0.59259131900397      2.57303513399060
  H   7.16333460054894     -0.93221635601860      1.86979805382054
  H   6.93455008905142      1.50214627433438      0.14244325247391
  H   4.68858265924843      2.10443708729203      1.34155346466052
  H   4.34752415109925     -3.04834407867179     -2.06286760617286
  H   2.35698415407457     -2.95537523981198     -0.68823778191463
