23
Coordinates from ORCA-job 14406optt
  Br  2.90837816512989     -1.39945779213771     -2.50676354608551
  C   3.86947524499726     -0.29541907700992     -1.28800277283821
  C   3.75289499841116      1.03838470184300     -1.24779013585231
  N   2.92437444228664      1.77144824807310     -2.13156445277177
  C   1.76959337292423      2.42993424134097     -1.76390147712784
  N   1.33660608453261      2.83526667502257     -0.64290707961141
  C   2.05033560311336      2.82520920924777      0.54342825097173
  N   1.83100669096085      2.04623424023973      1.51985149192777
  C   2.79038926395986      2.01947149792038      2.53998657734597
  C   4.01305150068362      1.47861279825461      2.37854299556353
  C   4.42421023250001      0.90861761354745      1.08538552475412
  C   4.50176159111669     -0.51151608407960      0.95432957458027
  N   4.53417023588508     -1.44505674408710      1.82752681157359
  O   4.61032210178273     -0.96875016099899     -0.38669003752832
  C   4.37988428783593      1.67714365787555     -0.11428910007532
  C   4.83609091328649      3.00107791671224     -0.21441652983159
  N   5.18252224315793      4.10390169542820     -0.29989746776718
  H   2.88887939164682      1.40637191969774     -3.07125785733317
  H   1.14473781280789      2.62964144957057     -2.63422760348518
  H   2.77949255936819      3.63588231522397      0.61328177341836
  H   2.45708671043505      2.33579662508038      3.52476790221507
  H   4.62983763926144      1.35052779261801      3.26420171009138
  H   4.49089891391604     -1.02432273938300      2.75240544786603
