30
Coordinates from ORCA-job 14402optt
  Br  2.18660560935484     -0.33702163888976      2.91673784097823
  C   2.97571861587294      0.26729548277833      1.21884122443564
  C   3.67955225657317      1.45570164607520      1.21817060225620
  N   3.40997868304729      2.48272266692258      2.17657850421675
  C   2.30790749770382      3.30879487051876      2.04223918813750
  N   1.74587293626496      3.94412149815833      3.00022954341911
  C   1.75880722160749      3.52948545113249      0.63749573606652
  N   1.10142735709834      2.34473166694129      0.11890411418446
  C   0.76649881201430      2.33120993156726     -1.29374475932777
  C   0.52511466998703      0.90425840566063     -1.81436764162510
  C   1.80509375282481      0.13359221353524     -2.23256824006827
  C   2.84641648053375      0.25781715413353     -1.16093368450540
  C   2.63510255303481     -0.42537467327852      0.08511828354018
  C   3.76293971621054      1.27143382298210     -1.21220138569642
  C   4.32972321928064      1.80570856244711     -0.02468714750479
  C   5.30289573829181      2.81976486860431     -0.08818777772471
  N   6.08304169846059      3.67520995352056     -0.16666470875287
  H   3.64764485284171      2.27294577558450      3.13591009780947
  H   2.18523869705953      3.71205334496660      3.89229714765666
  H   2.59345673678570      3.76375844518825     -0.02770207534890
  H   1.10869600051243      4.41063659115086      0.70230117388899
  H   0.31541022631102      2.07578545234500      0.69702837823727
  H   1.61264678727776      2.77089587669840     -1.83054379432726
  H   -0.11113355676788      2.95656215255976     -1.52654950451429
  H   -0.15838998637587      0.94316584195810     -2.66829955866694
  H   0.01929423657112      0.33927227795559     -1.02538806178759
  H   1.53269500363547     -0.91017089157610     -2.42430059793486
  H   2.18249475138294      0.55308005647312     -3.17024187657317
  H   2.09223668088719     -1.36086381831738      0.13068602779535
  H   3.97001275171769      1.76842701220377     -2.15715704826399
