25
Coordinates from ORCA-job 14418optt
  Br  1.38109501302053     -0.03171081340415      2.14093293390668
  C   2.67088129615676      0.37381069139593      0.82032307202320
  C   3.56345505668530      1.34733931457160      1.01723234380021
  N   3.30279094428718      2.45806113702105      1.82104096169941
  C   2.06754703295224      3.09726423984984      1.65605328331362
  N   1.48040656103024      3.04757342135955      0.54498317098187
  C   0.17676414516759      3.55647265099692      0.36565488510570
  N   -0.14524728046747      4.66972347646601      0.93442163912080
  C   -0.66894917267609      2.81548551633349     -0.56829315535533
  C   -0.39843110162413      1.57352021783205     -1.10215790584335
  N   0.57315961587256      0.81452730377367     -0.60928469994596
  C   1.39169983309397     -0.02457779189690     -1.20761074196290
  C   2.62661867602923     -0.19719063610171     -0.52964893432531
  C   3.87538592177121     -0.37273635229599     -1.10966315711986
  C   5.00300367562693      0.34545242855568     -0.58153038460268
  N   6.24633002151210      0.26867685686906     -0.87691511564161
  O   4.69928958147518      1.40692730465358      0.28107906700029
  H   3.82520765273587      2.61658661669432      2.66599959592959
  H   1.66916424493081      3.58650609173323      2.54816768486299
  H   -1.10304796277538      4.90741283125710      0.68234616491929
  H   -1.53554991372262      3.35384912159402     -0.93642041943096
  H   -0.98358217696868      1.25081675762528     -1.97569195378240
  H   1.28925105664784     -0.35101834213705     -2.24865661085454
  H   3.98231995738690     -0.78086638978481     -2.10713673324081
  H   6.37343732185186     -0.51090565296186     -1.51622499055793
