22
Coordinates from ORCA-job 14410optt
  Br  0.86039914865053     -0.43834161370630      0.30255670926002
  C   2.74775833960367     -0.29702979182473      0.22861027871268
  C   3.54747225856548     -1.43789302185565      0.11492060435079
  N   3.07607748524355     -2.69044506402146      0.07130981368462
  C   3.90684905011772     -3.69163469891967     -0.05332761816529
  N   3.28743614887241     -4.96128634396736     -0.13509742564024
  C   3.56559198711285     -6.04713920821032      0.67681902621890
  N   4.53814690413692     -6.23418757895143      1.47331669328444
  C   2.57050637390790     -7.09946604646735      0.52914190628908
  C   1.72063010723036     -7.93321771762550      0.39607543367371
  C   5.35298111191890     -3.56218372361182     -0.24064669475479
  N   6.17157860326261     -4.52740875485981     -0.54058480729363
  C   5.82899785711508     -2.21058436012139     -0.08855500927335
  C   4.95539806968215     -1.18395794674687      0.06628413877277
  O   5.40613634541204      0.08669925576183      0.16659441185679
  N   4.47236939416671      1.21252751660423      0.25001033058277
  N   3.24716880182714      0.92777339334815      0.27675039225711
  H   2.31777337317146     -4.88784496815443     -0.40958195762153
  H   5.16451367225741     -5.42996574262747      1.48878873916430
  H   0.97317889934040     -8.68137387802752      0.28737190502876
  H   5.66822215476355     -5.40390580013531     -0.65386260999337
  H   6.89181391364110     -2.02813390587977     -0.16589426039455
