24
Coordinates from ORCA-job 14421optt
  Br  2.06911118083923     -0.75665787114414     -2.25634334209859
  C   3.06024025551331      0.22926899809592     -0.99997221589776
  C   3.40985367824725      1.50158639149833     -1.16987035478606
  N   2.99183170302270      2.33234021890369     -2.19316513242866
  C   2.22365242670080      3.50486744185495     -1.96992289360406
  N   2.37947812409496      4.41505318683287     -2.86113810004818
  C   1.40649972212018      3.62384299532082     -0.73235616792144
  N   1.19977850337625      4.81557348713652     -0.17611275239019
  C   0.95399717539863      2.43894440457086     -0.07432783938658
  C   0.59204449629895      2.36358172685416      1.24044742314547
  N   0.67343987236602      1.12623876911726      1.95806223223942
  C   1.71194354992207      0.24337755802709      2.06818225341980
  O   1.64155338390636     -0.77064216112382      2.74114570266321
  C   2.91347228286819      0.57232635850273      1.22540975694235
  O   3.21928868301156     -0.36559253288088      0.21517610165380
  C   3.44556404193100      1.77489913899053      1.08866643033409
  O   4.08227578436814      2.08440336647282     -0.08683954031755
  H   3.57269704105095      2.41908247550773     -3.01466554368663
  H   1.72324578558231      5.16934153373558     -2.67650135269306
  H   1.73626861005058      5.52097170113299     -0.67741989369640
  H   0.99532952005956      1.50822151160667     -0.62483270758672
  H   0.52225657138430      3.25660457763483      1.84808796421414
  H   -0.08825208513564      0.86937439695772      2.57259485651752
  H   3.27742969302230      2.60899232639470      1.75369511541209
