22
Coordinates from ORCA-job 14423optt
  Br  1.06106962513349     -0.04315169058778     -0.08864464670000
  C   2.95185073575959     -0.11469478220369     -0.08732400018804
  C   3.58743465026667     -1.34732598615322     -0.08656482383136
  N   2.89426117605356     -2.50659279656113     -0.08629560542326
  C   3.65465678269954     -3.59762559719823     -0.08531139990186
  N   3.02837025671482     -4.84009838050783     -0.08448102848408
  C   1.67633129335836     -5.13124393760146     -0.08353969210890
  N   0.67679409571882     -4.35015608837053     -0.08349584300673
  C   1.44500616066737     -6.57104807917080     -0.08236462494661
  C   1.28393616273902     -7.75798215041415     -0.08137015075817
  N   4.96931851235048     -3.67567731594725     -0.08500035240120
  N   5.70073218598257     -2.56927135932510     -0.08551034663060
  N   4.96499197639201     -1.36595090937809     -0.08592881558932
  C   5.79051371770360     -0.20492970980292     -0.08583787044744
  O   7.00493193205614     -0.29897155499326     -0.08526165155204
  C   5.06000965667897      1.03389708231107     -0.08634674136823
  C   3.69837673172874      1.06600555869311     -0.08716057371011
  H   3.67588110756133     -5.61229415753016     -0.08389962614982
  H   0.99785587703194     -3.37982806071152     -0.08440195981633
  H   1.12072851284938     -8.80836932234375     -0.08046215256206
  H   5.65528242869120      1.93496627500593     -0.08616099148448
  H   3.17266642186233      2.01334296279078     -0.08763710293935
