24
Coordinates from ORCA-job 14426optt
  Br  3.11497561294170     -1.47326260238721     -2.66570785756006
  C   2.45526388173732     -0.83534314185486     -0.98839600424457
  C   1.39469747342246      0.01929763976858     -0.96461644357889
  N   0.91724834610106      0.74765054112491     -2.10713633523532
  C   0.75733960488703      2.08225017799736     -1.84169902767416
  N   1.53794831981600      2.64032071833198     -1.01263744285680
  C   1.19909614446486      3.76894837944855     -0.29750813130953
  N   1.18523742813911      4.97272201456018     -0.73880397227391
  C   0.86408632742227      3.57594542533620      1.13610775874224
  C   0.93828874116689      2.62283268719032      2.08795098946359
  O   1.39670744610698      1.36516705796052      2.25246874212949
  C   1.70802918352808      0.49731170813819      1.21020382158583
  C   2.83360679667121     -0.27196663461730      1.31915166766576
  C   3.13892322097648     -1.15186324664161      0.21994370137832
  C   4.13066609518190     -2.13811960835099      0.32087417230536
  C   5.00714349099467     -2.96688046760464      0.43917068162875
  N   0.85547260757686      0.47566327039981      0.20284364196692
  H   0.27467977082136      0.30839043267032     -2.74463720027971
  H   -0.11295805091366      2.57508370247774     -2.29109829743261
  H   1.45140676013638      4.96112038717931     -1.72316629165208
  H   0.47223786699741      4.50049091261989      1.54468581934144
  H   0.58428033876814      2.94828130152318      3.06096951627082
  H   3.48479245636133     -0.20451452737685      2.17839639758145
  H   5.77583013669413     -3.69352612789360      0.52864009403767
