24
Coordinates from ORCA-job 14422optt
  Br  1.22381816866291     -1.65303043650911      0.26681419878651
  C   2.34278295847979     -0.16937556387541     -0.11338779400573
  C   1.79564017285263      1.08574718049088      0.07088590039793
  N   0.50401243083409      1.27546136575670      0.33473831943723
  C   -0.16119446160708      1.64536353358402      1.38168097835765
  N   -1.40772398113858      2.11165772098435      1.38215607169421
  C   -1.92909884773322      2.72071949777289      0.30829702439715
  N   -1.36046374902188      3.29184628511596     -0.73953382251272
  C   -0.06111620737528      3.57009480622283     -0.83430853538439
  C   0.78578206786474      3.97230015206297      0.27822611880954
  N   0.43889397833200      4.66815205317706      1.29827223804512
  N   2.13129210505418      3.58467956807901      0.21117638471929
  C   2.60725202146935      2.31058827627470     -0.17501424751882
  C   3.83812950593852      2.25262912364968     -0.70271630861322
  S   4.72721108677477      0.82184268454028     -1.05635505396405
  C   3.66303157931459     -0.51593685078953     -0.56728015268903
  N   4.10380440671917     -1.71518504445410     -0.65596717317646
  H   0.29812528905372      1.53868633119215      2.36957502869809
  H   -3.01675412533130      2.77358004501875      0.30858730680438
  H   0.39815667814358      3.52271859241342     -1.81670362765167
  H   -0.53590501147914      4.94288097963345      1.19899606931774
  H   2.65947960860606      4.01255885602409      0.95913556129437
  H   4.37304740102344      3.16674148080635     -0.92458305827415
  H   5.06179692456287     -1.73672063717143     -0.99769142696898
