23
Coordinates from ORCA-job 14439optt
  Br  5.06577183101699     -0.35898899019193      3.62943092260457
  C   5.46544395261681     -0.41781944148210      1.77140937548989
  C   6.61450460481115      0.11509648173084      1.27826370591730
  N   6.99546384661949      0.05546221999768     -0.01582301397123
  C   6.36019438532504     -0.70656345277056     -0.92048831072822
  N   6.97132895205712     -0.76443725401015     -2.23395126367278
  C   7.94715674384243     -1.82905942335507     -2.34351106885225
  N   7.76822079120384     -2.90777108610265     -2.95700745782446
  C   9.11501023399924     -1.47279195874401     -1.48493964733217
  N   9.31429479192585     -2.08543263495601     -0.39084534138303
  C   9.77398146072586     -1.22906037827600      0.62811462933954
  C   8.93830031935824     -1.11032178954797      1.65815507770154
  C   8.66256209605599      0.17830963569258      2.32266126298036
  N   7.54370633904931      0.75920770545128      2.16820448760109
  C   5.19770467863194     -1.49395721183644     -0.77353166050985
  O   4.68954725645922     -2.25943047597723     -1.58514884532225
  S   4.29992092603530     -1.28881018618162      0.80884569450444
  H   7.45049813937320      0.12571239282589     -2.34349203714273
  H   6.81815511438539     -2.89615044206268     -3.33790250729339
  H   9.50908216270669     -0.45996660351315     -1.64419159133673
  H   10.54531526101560     -0.49223264959361      0.40152948965526
  H   8.13140700444850     -1.83613537772750      1.70373786758089
  H   9.42142910833672      0.68114092063044      2.92248023199423
