23
Coordinates from ORCA-job 14435optt
  Br  0.94632170502843     -0.11264089319372      0.16134782662023
  C   2.82541133502937      0.06435285508172      0.06013025194066
  C   3.58046344816224     -1.08766532704271     -0.01449919546791
  N   3.24563436545595     -2.42617780553645     -0.02824014380875
  C   4.39378789557084     -3.20968079010681     -0.03396020538935
  N   4.51899802477252     -4.49831205081818     -0.04031592134213
  C   5.50457577718671     -2.28337053046017     -0.03050053868556
  N   6.79942052856997     -2.78802948944453     -0.01797357710429
  C   7.95746724718275     -2.07068547660755      0.04022507859742
  N   9.14534095008726     -2.53415206515872      0.10410331429668
  C   4.99431626770316     -1.01557739182861     -0.02656927784814
  O   5.64710969970844      0.16198014513089     -0.01541387504809
  C   4.90559092124141      1.34358558250860     -0.00267746776043
  C   5.71791786445887      2.50738227492041     -0.07408918266075
  O   6.95057776187489      2.50071202235486     -0.13539595289391
  C   3.50619589336386      1.28434884904407      0.06941973512954
  Br  2.53236853819075      2.90148453965425      0.19913608303455
  H   2.30498767473661     -2.77740233291697     -0.01238763833145
  H   3.61593068654639     -4.96345104521284     -0.03913126352377
  H   6.83339498242547     -3.80031074839121     -0.00327371290709
  H   7.80509284696733     -0.99202668675525      0.02578432507709
  H   9.13479872537095     -3.55551931447272      0.11340441227318
  H   5.16129686036574      3.45515567925165     -0.07612307419773
