26
Coordinates from ORCA-job 14447optt
  Br  2.52904269797485      1.23526656203614      2.06820225943298
  C   3.11553837843728      0.05747813881849      0.70133395607663
  C   2.28763478554071     -1.01760538970699      0.35604361050601
  N   1.09271313496653     -1.19027507940241      0.88676918945543
  C   0.21103883111082     -2.09367043387954      0.26650410649433
  N   -1.12346273254952     -1.98894404950883      0.85754574492823
  C   -1.47643255261254     -3.18413943478503      1.50906659398644
  N   -2.50930735972379     -3.40268563358162      2.24993937086810
  C   -0.47125804413439     -4.13886082771539      1.18267451455647
  N   0.50648841016167     -3.54310289859983      0.45884318466776
  C   1.56333440237259     -4.15436847422680     -0.20044319053493
  N   1.66766032476161     -5.43780685961789     -0.33405634951680
  C   2.57632719232975     -3.30450342105899     -0.77675941073092
  C   2.91158644057872     -1.98437195895784     -0.58483879434295
  N   3.99585197837041     -1.51670095679415     -1.29733978146936
  C   4.74560197514155     -0.40726960308324     -0.97230984969162
  C   4.32716470206136      0.37375657727148      0.04698171831624
  H   0.15513940740579     -1.94239060255767     -0.82102180307867
  H   -1.18082090001331     -1.16118175461706      1.43668253131289
  H   -3.07416981439772     -2.55738177371937      2.30931157762334
  H   -0.42247572899074     -5.15456615312797      1.53282443375489
  H   0.85897119916402     -5.90801685805059      0.06142420478417
  H   3.25045885972593     -3.88030444996083     -1.40122382649748
  H   4.39069967352432     -2.17022560584069     -1.95370402831488
  H   5.62157570568107     -0.22137659216958     -1.57267742666600
  H   4.88609903311299      1.25324753283627      0.32922746407969
