28
Coordinates from ORCA-job 14440optt
  Br  2.51934095984694     -0.49882415750416      2.87077807852118
  C   2.84814191447532      0.33194870852587      1.14674483432019
  C   3.42452216018576      1.63167985243474      1.14869311460529
  N   3.05733083149347      2.57764113710770      2.13568769632454
  C   2.05750135850257      3.50166387518570      1.98369500653478
  N   1.66065003196127      4.32354680155324      2.88477671770416
  C   1.43364295324322      3.66003163557837      0.60353381808239
  N   0.86636683670356      2.45360139661644      0.02083814847402
  C   0.73934824472792      2.28155789632896     -1.33082500347606
  N   0.87497346707067      3.18037924281212     -2.23316734998959
  C   0.42727671720249      0.86369147828831     -1.76568856814979
  C   1.70592022719679      0.07820353336590     -2.16301801143301
  C   2.74438296421519      0.18661586361308     -1.09215798843986
  N   3.66861080335865      1.24145500937797     -1.17264614673317
  C   3.90080233855392      2.12197731007211     -0.10231124916103
  O   4.40597902366158      3.22106534159306     -0.33069569404895
  N   2.46551080114932     -0.34744311723260      0.10592321743823
  H   3.48361160500041      2.53982753066038      3.04941073270674
  H   2.19137424112610      4.19055989196710      3.74622075697049
  H   2.22783363198576      4.03766531396437     -0.04964846727271
  H   0.67150064507521      4.43141664283380      0.71310121679474
  H   0.90142597997767      1.61205381414193      0.57518276261931
  H   1.13210135513156      4.07924912371895     -1.83088345419498
  H   -0.25669745742251      0.91465918309899     -2.61330166223037
  H   -0.06023558255815      0.32493658989222     -0.95091845510496
  H   2.08761182812633      0.47469973090992     -3.10662049852981
  H   1.43215099992436     -0.96785894042502     -2.31509579657509
  H   3.81002112008456      1.67999931152045     -2.07060775575666
