26
Coordinates from ORCA-job 14442optt
  Br  0.96461753587025     -1.51329717256059      0.58167902947938
  C   2.81545312262758     -1.33758854864311      0.22911687926069
  C   3.29810231569606     -1.66368755692821     -1.00719733953445
  N   4.65513550681881     -1.44128677512452     -1.18377563569880
  C   5.60426337657263     -1.24841176718854     -0.19682705954196
  N   6.84793542462314     -1.00535439863264     -0.39698500866422
  C   5.06148682278416     -1.46343398621229      1.14102371974695
  N   5.92565836237444     -2.19485671613288      2.04418269350859
  C   5.69199894341722     -3.51796530093727      1.52396493317572
  N   6.50208529062688     -4.08082691504323      0.72735016758438
  C   6.15181911800629     -5.10672860031869     -0.14988003989989
  C   5.05880310282412     -5.19059352319176     -0.95299822939275
  C   3.83592378708373     -4.37362712187859     -0.87215687770777
  O   3.31529945506751     -4.13800048345303      0.24458299685622
  C   3.27830617327127     -3.79055064581025     -2.08674221177793
  C   2.71503495902850     -2.52574419352980     -2.04921592634671
  C   3.71990664404811     -1.36052714662491      1.32966929692304
  H   5.00748351363247     -1.73396374770062     -2.08426636157020
  H   7.06181430489412     -0.95955237548904     -1.39085099406506
  H   6.88422265260270     -1.93894515975643      1.81010289718318
  H   4.70445737099443     -3.90548089560002      1.75118956303031
  H   6.97992068828512     -5.77465511121436     -0.36636574147689
  H   5.13580009554239     -5.88090486743257     -1.79046374117844
  H   3.27554377467980     -4.38677739840064     -2.99828613392853
  H   2.00257360486240     -2.14958447601265     -2.77148497688616
  H   3.31335405376576     -1.53465511618332      2.31863410092129
