21
Coordinates from ORCA-job 14448optt
  Br  2.30111485388727     -0.38831320976545     -3.03048726579443
  C   3.19523108250558     -0.02814558455122     -1.39239840447731
  C   3.87775640941367      1.18301898784743     -1.18653725732077
  N   3.05354238641785      2.40525424141061     -1.07583735492991
  C   1.80711249038957      2.25899782224014     -0.60658330746953
  N   1.14158847635487      3.08827618712584      0.13458641665250
  C   0.05945630266758      2.60256232276564      0.83042931040047
  N   -0.18110269253570      1.44947177325687      1.35186606416974
  C   0.79295234887997      0.46823074534795      1.14412676287774
  N   1.90325819044815      0.50097186628690      1.76274818691140
  C   3.02158785283114      0.13122508977193      0.96860015052508
  N   3.96623968526134      0.98541865561932      1.11698013444840
  O   4.73520189769531      1.09886829524066     -0.09844962672273
  C   2.88705862578057     -0.77911128208553     -0.23242259482897
  N   2.35644707203436     -1.96554974887247     -0.16825678526066
  C   -0.96624228551262      3.62199909073624      1.07570022307469
  N   -1.77440025925811      4.41777337096588      1.23966324743945
  H   3.55152585456976      3.23178457160288     -0.77038988973340
  H   1.36336175445716      1.31915024913829     -0.92475933351624
  H   0.56658332295920     -0.24161868674452      0.33966619006747
  H   2.12972663075305     -2.18826475733740      0.79975513348701
