26
Coordinates from ORCA-job 14444optt
  Br  2.05815124074475      2.18896506818623      2.07079110420487
  C   2.66387932071840      0.10013591156841      0.64751452030933
  C   2.45062080767089     -1.24443570436554      0.62941610537254
  N   1.71108797111545     -1.81820500384467      1.70492805703945
  C   0.30049887499824     -1.74882342043515      1.83322885603691
  N   -0.42939772914032     -0.73078816650134      1.76820757921807
  C   -0.14854433396653     -3.18218057771458      1.84006498934180
  N   -0.75468176909955     -3.63295512846953      0.83041376308235
  C   -0.42628575619984     -4.90385790323516      0.30757488184558
  N   -1.07651040187092     -5.96110554441259      0.55322016415809
  C   0.70329590212826     -4.63474540351413     -0.64779107409881
  C   1.80856509099310     -4.04656540941005     -0.15579506894871
  N   2.70904772722981     -3.28601840555874     -0.84533343629186
  C   2.98190580700948     -2.05543417191049     -0.48132253356521
  C   3.89284365663088     -1.32447309013460     -1.34242048549788
  C   4.06603750088612      0.00829598379683     -1.24376532757868
  N   3.41209092143909      0.71638750859178     -0.28129636978038
  H   2.11189777013195     -2.66816958462744      2.05819042527489
  H   0.13698183261137      0.11654591752431      1.66262836698127
  H   0.40588980608458     -3.84526740623831      2.52036973512016
  H   -0.67579078298369     -6.72277089817153      0.00861253202533
  H   0.44842140000241     -4.53314271526852     -1.69675623174228
  H   1.97110555244699     -4.17910749259523      0.91205337879559
  H   4.38178231642458     -1.88219374307434     -2.12789386573338
  H   4.70741028544538      0.57238933929602     -1.90760374933823
  H   3.50869698854905      1.71852004051846     -0.18523631623084
