22
Coordinates from ORCA-job 14453optt
  Br  2.06337208080412     -2.39362750324121      0.32675463174744
  C   2.98717940277025     -0.76700847247073      0.15500940661318
  C   2.35824208506144      0.37866862255023     -0.18198957703863
  N   1.02799433919091      0.35772634028673     -0.60293713251097
  C   0.22338754304723      1.19802945214259     -0.08296227888735
  N   0.46927777381298      2.05389222470491      0.99095883152557
  C   0.47800864234257      3.37634418276198      0.39471262462326
  N   -0.45575586342218      4.25067190953202      0.61172651771578
  C   1.54277939375274      3.63761282276258     -0.54855477199600
  N   1.66209698129791      4.72385187706388     -1.24820310026095
  N   2.71885501339973      2.81669267825122     -0.60089255669612
  C   3.18239985016034      1.58592441724365     -0.29291540109156
  C   4.56316888666540      1.38903561866731     -0.16317749825139
  Br  5.77110146148623      2.82437953739563     -0.38925931037860
  C   5.18276456664132      0.15097182714798      0.16078125732275
  O   6.35374001787348     -0.09143343576250      0.30593644934009
  O   4.30086381471096     -0.91337718520272      0.36571944822439
  H   -0.77205127340139      1.29998528727333     -0.50642813226333
  H   1.35039625209280      1.83293454656468      1.44917360353382
  H   -1.09452367244692      3.87477558459524      1.30769225980870
  H   0.83987310647376      5.29397282696679     -1.06302550137990
  H   3.45882959768627      3.43797684076641     -0.91211976970021
