22
Coordinates from ORCA-job 14450optt
  Br  1.06414781098154     -0.10544230035444     -0.41022827994120
  C   2.86372685474855     -0.18119883904602      0.18820579176176
  C   3.57485346388571     -1.38823780041034      0.24374044205085
  N   2.96869022556913     -2.59222077869640      0.34288331006631
  C   3.73298568157291     -3.64339623476298      0.48037321810087
  N   3.03333775039557     -4.84861966642117      0.53905558041568
  C   3.59721962668444     -5.97046475484844      0.72557137816155
  N   2.79409548084907     -7.09848212940420      0.75224946274166
  C   3.25375684604953     -8.37290353213462      0.93950266026823
  N   2.58278471797608     -9.45158381394667      0.97463876344136
  C   5.22033541518273     -3.57012615535667      0.54761567063257
  O   5.90942779278166     -4.57870686983271      0.78103396334027
  N   5.78094618797145     -2.35478464439169      0.31177756471518
  C   4.97483913702411     -1.31493850709447      0.17521293854519
  C   5.51473261406973     -0.01757143436406     -0.18122813879914
  N   4.86365750408096      1.07692165556572     -0.26420972872729
  O   3.50320934948697      1.02134922177844      0.09086468596378
  H   4.66366959052174     -6.12617978433249      0.86616244071555
  H   1.80489784438760     -6.93224749933515      0.61911359614661
  H   4.33439909133685     -8.41606548623452      1.06840328421344
  H   1.58705298725601     -9.27113990847782      0.84153377194025
  H   6.56623402718749      0.05703926210089     -0.43827237575347
