22
Coordinates from ORCA-job 14463optt
  Br  1.27255486009130      1.46659231015500      0.96190787434661
  C   2.86413123208671      0.71623634531759      0.29689106158764
  C   3.11172263192720     -0.59098265768558      0.37865248975685
  N   2.23154193627093     -1.54279980471521      0.91157604641002
  C   1.82526872658000     -2.49581383465650     -0.09926320755702
  N   0.83132602206424     -2.27649343409214     -0.85162407189006
  C   2.62845302148985     -3.74510016862150     -0.14499707938583
  N   2.07372568958036     -4.87799429959421     -0.46163801250283
  C   4.05020421692521     -3.68304209602247      0.20205721594164
  O   4.70583170322138     -4.70379092682959      0.45804151852866
  C   4.84093030564106     -2.41103333333226      0.02272783665615
  N   6.12587966782714     -2.50759096379970     -0.08667384089054
  S   6.85276241801148     -1.02145362313619     -0.38822382217642
  C   5.34828779047451     -0.13444474496421     -0.31054658661356
  C   5.09020305485662      1.17047612577135     -0.35891069102972
  N   3.72679281789569      1.64580049937324     -0.32992683444766
  N   4.33414809911596     -1.09389458496747     -0.14203564194653
  H   2.70954627626987     -2.05096496645567      1.65194062538782
  H   0.39878986933809     -1.38937364037438     -0.59150807483554
  H   1.09187725688715     -4.69277255105193     -0.67094727010590
  H   5.85926339538563      1.91526598756317     -0.48042798965517
  H   3.66275900805957      2.54417436211870      0.13192845442139
