25
Coordinates from ORCA-job 14466optt
  Br  1.12869971764752      0.29599924465181     -1.31872704064611
  C   2.96613196365339      0.18939918574688     -0.67190540946080
  C   3.53340753989954     -1.10095585281583     -0.57368157522175
  N   2.80202375074703     -2.30275476440046     -0.78391256396472
  C   2.25376246870407     -2.97519671723371      0.32121136532934
  N   1.43604852105474     -2.48559242609974      1.15408804474129
  C   2.92101573682803     -4.30417254695289      0.62574988012920
  N   4.31077116663955     -3.94296337846576      0.93807858703847
  C   5.08336969599147     -3.62567109776792     -0.17040587434338
  O   5.10605081803707     -4.34119782380105     -1.15130890182504
  C   5.81088844101714     -2.30642021971522     -0.09986784411508
  C   4.90524132606358     -1.06732821519270     -0.13825437926307
  N   5.51772991473827      0.03456760254945      0.18222134406093
  C   4.83654391350737      1.22228702508824      0.07997922729641
  N   3.52965733161472      1.29800427699488     -0.39226750555857
  C   5.48813963763610      2.41096961273046      0.43783381393931
  C   6.05524403965752      3.43783573196937      0.74905762394129
  H   3.19851749806932     -2.92131428726831     -1.47709592168863
  H   1.15786039049093     -1.54803460071591      0.85574328159452
  H   2.93709251965636     -4.98046687314341     -0.22771484568479
  H   2.44025123550090     -4.78111201746591      1.47502455321985
  H   4.33580751196107     -3.20862125463444      1.63657476400813
  H   6.49820764915942     -2.26328399443371     -0.94453495458062
  H   6.39860804572792     -2.23951336805443      0.81788021900661
  H   6.55092916599690      4.33653675843033      1.02023411204722
