24
Coordinates from ORCA-job 14470optt
  Br  0.88696361285948      0.21174080026201     -0.81364769713195
  C   2.69667608465181      0.24259344654837     -0.22841553458812
  C   3.45506589190933     -0.86929689186490     -0.22803504998549
  N   2.93311190551118     -2.13533266536684     -0.60468289085353
  C   2.42260831346849     -2.96088835877156      0.41427749665046
  N   1.48736341267792     -2.68540405612679      1.21554621105738
  C   3.22863724454236     -4.21959142628003      0.57427718468707
  N   4.54320498978501     -3.82957822837692      1.08696611265122
  C   4.92030995854628     -4.29442601221543      2.30928320143518
  O   4.26552375210387     -5.01359652033803      3.03342960449078
  C   5.54623915035376     -3.16603439035810      0.28476341368967
  N   5.67020473905953     -1.91840717511658     -0.02555808347139
  C   4.90570093637215     -0.80823444582528      0.01034616685626
  N   5.58669263093240      0.34483702626335      0.06637323877783
  C   5.04818796015985      1.56373342145700      0.13352487489059
  N   5.66211721827246      2.69086038314852      0.19026575210558
  S   3.24899464789923      1.82630240441519      0.20856525379553
  H   3.62898732365195     -2.63054592863283     -1.14800149920104
  H   1.10168768681538     -1.76250219685972      1.01740605188737
  H   3.35118855656144     -4.73919868794132     -0.38182999737791
  H   2.76488911114306     -4.87633543958917      1.30388012823326
  H   5.92749429991706     -3.94348323461726      2.58374789015077
  H   6.39214895611081     -3.80972011399807      0.05897201492487
  H   6.66200161669510      2.48950829018445      0.20054615632559
