22
Coordinates from ORCA-job 14473optt
  Br  1.56997237304393     -0.30195388409463     -0.81168054022421
  C   3.35808755172991     -0.03949265299011     -0.30977697517240
  C   3.92420261208838      1.19154287865959     -0.05926690722754
  N   3.43892306131711      2.43100801353311     -0.09309889112983
  C   4.51179610793085      3.20914577672874      0.24344497052251
  N   4.41033505341870      4.53147752371458      0.31437219814224
  C   5.40666224447195      5.34651915468714      0.59357905295964
  N   6.73558893508128      4.94707747996510      0.83788944768410
  C   7.80272511101184      5.75057006064609      1.03639663790043
  O   8.93923028062097      5.35195041335958      1.22062589628683
  C   5.13892747769637      6.73839002651734      0.64567128245572
  N   4.96095865787843      7.88035044799137      0.69725783720965
  N   5.68121191732630      2.47838111743056      0.49829589021477
  C   5.33231683562644      1.22926762182106      0.31628452232282
  C   6.07854376451627      0.02545424366695      0.42718168629254
  C   5.43636613298487     -1.14675115779154      0.16517067466302
  N   4.12698305416522     -1.17931080103124     -0.19308179802105
  H   6.86839515908737      3.93281023099620      0.82702698510368
  H   7.55587315676974      6.82273532670834      1.01884954528474
  H   7.12105254642492      0.02925852331801      0.70893337140720
  H   5.92020702028716     -2.11088601123248      0.22530186101557
  H   3.68464094652190     -2.06254433260381     -0.38037674769042
