25
Coordinates from ORCA-job 14472optt
  Br  0.98377431355200      2.27857841292128     -0.59382205375878
  C   2.78421427932366      1.79703216989633     -0.28605845847621
  C   3.28542456887923      1.48202254413681      0.92432405788604
  N   2.73392728599232      1.89250081147280      2.18313637363384
  C   3.22817424200975      3.24968138235583      2.35982584598450
  N   2.54241382693345      4.28695264771486      1.77525063038821
  C   2.93578313379414      4.84630979886495      0.67010779315473
  N   3.94341475387817      4.40768757828701     -0.11890087164569
  C   4.01200341282587      4.92771969198176     -1.35603421221883
  O   3.40177164422108      5.88580955854063     -1.83829342994432
  C   5.03229956376484      4.22057339550750     -2.31909740986302
  N   5.36942983948721      4.81243317787212     -3.39333422277976
  C   5.67077123931788      2.97486653403290     -1.86852419011055
  C   4.98150976078208      2.03269367893284     -1.19725533676913
  N   3.59856088027125      1.86847173148092     -1.39050015941702
  C   5.48024159625851      1.20898459011011     -0.11453651559841
  C   4.65340107493501      1.00006073083735      0.92696930454663
  H   1.72049179171681      1.93204137878276      2.13055038650913
  H   4.30933471432160      3.29798804782395      2.45617580817191
  H   2.34673983822327      5.70159818223399      0.33141693800511
  H   4.83855006048789      5.68991079023189     -3.42041660067997
  H   6.75272653763397      2.93278954165060     -1.88214090859791
  H   3.20993431482811      2.31585403217228     -2.20740563446435
  H   6.53184737389275      0.95738377762973     -0.07071686037046
  H   5.00725995266906      0.54605581452873      1.84527972641430
