22
Coordinates from ORCA-job 14478optt
  Br  1.22279260103849     -0.27762029446189     -0.35469140139315
  C   3.12753579364794     -0.07745141396990     -0.19216667621958
  C   3.65615975300209      1.22366892762467     -0.10123843013079
  N   2.79186646712753      2.26905105656303     -0.11667038372616
  C   3.05852934199776      3.53712564517513     -0.05448184491080
  N   4.29872980628758      4.17439955004915      0.04154214673119
  C   5.51766264304560      3.58101155580293      0.09655968493885
  N   6.60603398214551      4.48096123150195      0.19201574618541
  C   6.64833254204146      5.82735902437948      0.20582550393496
  O   5.69710628790197      6.58934460075572      0.14282319589255
  N   5.88880198653316      2.34275866957663      0.08510109148773
  C   5.10207543472236      1.23713407341884     -0.00093329980291
  N   5.78768999437181      0.07624975858583      0.01003211516399
  C   5.12991496419086     -1.05279752364775     -0.07546492005510
  N   3.79936580057019     -1.19767678618257     -0.18224459503698
  C   1.98192588705821      4.47269198336114     -0.08633774594300
  C   1.10363505575081      5.29742518649404     -0.10787363272649
  H   4.29766654223361      5.18829914355754      0.06159575884612
  H   7.47798877467472      3.97574285884437      0.24365408973697
  H   7.68155815436062      6.19932692029652      0.28459737742827
  H   5.71062071086967     -1.96947687813221     -0.06219953939999
  H   0.31600747642794      6.00947271040726     -0.13044424100108
