22
Coordinates from ORCA-job 14471optt
  Br  5.76313234416580     -1.80143131014651     -1.55994725350253
  C   5.18330928391358     -1.39180300668734      0.17683419371246
  C   4.74156483460877     -2.34500615839848      1.10530959499463
  N   5.13347020418604     -3.68274245245468      1.09798621458209
  C   6.38996405999253     -4.19631141411696      0.84144802946615
  N   6.68041153931332     -5.43841221147128      0.85501598422810
  C   7.51251948205049     -3.27019698222109      0.48609163598235
  N   7.66933427934692     -2.12157196375312      0.98463895106207
  C   8.72903651818831     -1.38247564713768      0.37756112032331
  O   9.85908752464866     -1.83580769892448      0.34825772405537
  C   8.45207111102948     -0.04939061263867     -0.18508947646625
  N   7.48883301289017      0.81809579013126     -0.10470481559490
  C   6.25023674848450      0.88518119668767      0.38150305169308
  C   5.33886222815801     -0.12583865095771      0.73005807833768
  O   4.50609614724522      0.19503805808322      1.74123769276402
  N   3.52777568520400     -0.76664304945317      2.21073685446960
  N   3.92704264263853     -1.99911113223405      2.08216526020734
  H   4.52020631156693     -4.27751561000879      1.63823214070771
  H   5.86895892965091     -6.01004040949405      1.08905660089494
  H   8.18991261721043     -3.68287821760167     -0.26474321492223
  H   9.37087077432470      0.32088615035800     -0.63771882976343
  H   5.89030372118225      1.89197533243970      0.57207046276842
