23
Coordinates from ORCA-job 14483optt
  Br  3.25969848985252     -1.50718784566107     -1.41760831735478
  C   3.15888724011605     -0.03368760843314     -0.22806718181091
  C   2.16884523045536      0.95269042365893     -0.31998892955037
  N   1.19901062853801      0.92893260289466     -1.33215385616057
  C   0.33848294347940      1.97141876470646     -1.64349348484148
  N   -0.66988269878987      1.89962375352831     -2.41382755657262
  C   0.75993810206391      3.26867059817628     -1.02587805736514
  N   0.02273975443820      3.92580411667022     -0.23619552576017
  C   0.79022079020914      4.81794630522208      0.53575408344978
  O   1.19968783073817      5.89760178903803      0.21955721234834
  O   0.99542342567062      4.21306883149908      1.72287909761548
  C   2.24907795985635      4.30191807990937      2.33738750437583
  C   3.14908536057244      3.27698691025647      2.24998350426097
  C   3.12325855013850      2.11049910265332      1.44902623297578
  N   4.13774182865855      1.18753565335795      1.58658115323352
  C   4.12886465852304      0.16106808171608      0.78453315241727
  N   2.12013871392537      1.94670786964982      0.51845987964403
  H   1.10536571686285      0.07250876506516     -1.85671825279559
  H   -0.81761565663159      0.94101143991749     -2.73182032144275
  H   1.78690926852205      3.56178340892909     -1.25375160191481
  H   2.40978079857562      5.19104862627227      2.92792820079820
  H   4.03526934330681      3.38012659537630      2.86495609245906
  H   4.92507172091847     -0.57107626440319      0.89645697199094
