22
Coordinates from ORCA-job 14485optt
  Br  1.71926088996067      1.32482841427214      0.53956154378459
  C   2.80696824770767     -0.20391126843044      0.73477196572512
  C   2.38877005761200     -1.50223707937463      0.83367385812882
  N   3.47300794600868     -2.42592602766932      1.08734630861154
  C   4.46239925832480     -2.33262709901847      0.07446131961911
  N   4.70109302603471     -3.52162067759091     -0.58039629293863
  C   4.20944334110828     -4.74213326921212     -0.16932325561396
  N   4.15534244958576     -5.71458520904931     -0.97877588926514
  C   3.95880290250766     -4.89619030076438      1.33268042661553
  O   4.90832748342221     -4.94258653318182      2.07178433374039
  S   2.31409473827989     -5.16885105498849      1.91737488898777
  C   1.27278923995255     -4.68285628447613      0.59987943520608
  C   0.83828940740585     -3.44204448674800      0.24702732319080
  C   1.06736368981785     -2.03145594420111      0.55101799065288
  O   0.09750946938809     -1.24999725236972      0.36378242390421
  N   5.06591560087773     -1.26209537926047     -0.25783639416373
  S   4.51333245556697      0.13208798555361      0.53701476908294
  H   3.91061318678717     -2.20079140943573      1.98104516785188
  H   5.16461151533481     -3.49134270248033     -1.47620669928557
  H   3.80400083195726     -6.54487626346792     -0.50668446206175
  H   0.82151283803356     -5.52311763911794      0.08885890533400
  H   0.01455142432577     -3.48267051898847     -0.46505766710688
