27
Coordinates from ORCA-job 14484optt
  Br  1.41230968505248     -1.78481276510428      0.00447116844921
  C   3.31896166003663     -1.51556896246264     -0.10929455130604
  C   3.92490520963466     -1.42033048247787     -1.36032517590348
  N   5.26988071180420     -0.97561306494469     -1.30947043289326
  C   6.16048968385651     -1.37815190016983     -0.29828568922395
  N   7.44924898795720     -1.40565135493214     -0.45039177114347
  C   5.48878543590532     -1.76442349140185      0.90040351035778
  N   6.21193247211262     -2.52259446134641      1.85783203282095
  C   6.70324761300987     -3.76774498413436      1.61820920954283
  O   7.48980640870554     -4.34300182359076      2.32356999184295
  O   6.31595248611957     -4.35022559271837      0.42668964728881
  C   5.02251006977718     -4.34483075453914     -0.02534305806244
  N   4.08437197459789     -4.60059200647277      0.76997467791836
  C   4.99805751179281     -4.17419634826121     -1.53357424719504
  C   3.67836766265220     -3.71045767358960     -2.18228556372514
  N   3.51911287764086     -2.26629333638758     -2.42368150884644
  C   4.09091491024096     -1.64524526278996      1.02341657680912
  H   5.70483334282845     -0.73545562630879     -2.18720217827904
  H   7.70208959643956     -1.15361375213185     -1.40374857506267
  H   6.71884831336584     -2.06954502407934      2.60360629435637
  H   3.18176239596431     -4.55139952244456      0.30541745435656
  H   5.82131305152518     -3.51303492601678     -1.80736323806924
  H   5.25703118598521     -5.16068984378312     -1.93316089259981
  H   3.56859909618965     -4.20412239386714     -3.15091335773069
  H   2.82748700715605     -4.03891090514646     -1.57908349121149
  H   3.94191285820410     -1.99632837600342     -3.30080366567314
  H   3.63026779144498     -1.82116536489496      1.98733683318245
