23
Coordinates from ORCA-job 14497optt
  Br  2.50283168960852     -0.20436770701033     -3.63074691182375
  C   3.37196666761951     -0.31702481643845     -1.94536858789407
  C   3.06767681648540      0.66735019865553     -0.95760524265525
  N   2.18424746016759      1.63528145249553     -1.22627720477639
  C   1.54307542612846      2.36398701054588     -0.31675867558322
  N   1.44208127371050      2.09028673769540      1.07536253759680
  C   2.43848046138260      1.55358791633568      1.85495824861882
  N   2.30546045012039      1.03813979565419      3.01149283145934
  N   3.71832640584361      1.59627890973403      1.23203492615331
  C   3.83612133814725      0.54962323214078      0.24805242558843
  C   4.70124253619260     -0.48948277150724      0.47491842418061
  C   4.89947252373980     -1.49046255531682     -0.49068340227168
  C   4.22687131982514     -1.36456818391578     -1.71833023261569
  C   5.76526157724744     -2.59156951465895     -0.25001146160153
  C   6.49529891271259     -3.52868838665632     -0.04754866872915
  C   0.69186477964423      3.40509760840167     -0.74563150823729
  N   -0.04400768186154      4.24939617143197     -1.04524906616549
  H   0.52610803644842      2.18142042780893      1.49066831152145
  H   1.32159392542610      0.99982619830425      3.27282838021755
  H   3.79541620699962      2.48548588257682      0.74286293823936
  H   5.24078446606334     -0.51231150920839      1.41256100947293
  H   4.38617684254900     -2.10446695203579     -2.49097378194759
  H   7.13564856579935     -4.35581914503262      0.13644471125249
