23
Coordinates from ORCA-job 14507optt
  Br  1.30234774736415      0.47850296626950      1.75246447292947
  C   3.01640277662470      0.33552373501968      0.92986584081835
  C   3.63106854561803      1.43161071816459      0.41894661899938
  N   2.88369606342536      2.61413293384436      0.35733101175304
  C   3.28371453260289      3.78445592332328      0.07552733474138
  N   2.29337966598508      4.70247476645655     -0.31320485623680
  C   2.32102509420541      6.06232544118398     -0.13615646842452
  N   1.38794834881539      6.89108306680705     -0.37369228619160
  N   4.54435087252918      4.32108040628577      0.13846216342226
  C   5.60036071486531      3.50414833493487      0.71369123164156
  C   5.95111133018132      2.28971216697760     -0.13720715272614
  O   7.06031195286583      2.24697028796491     -0.66413099401977
  C   4.95278791496184      1.24396633498795     -0.20999035875731
  N   5.31719541819268      0.11218356801834     -0.82660351971775
  C   4.76843271665437     -1.07269923910389     -0.66147535319510
  O   4.94331979295837     -2.09836327842160     -1.28145195482724
  S   3.62377123706449     -1.27764511345790      0.82714750384925
  H   1.40506432056206      4.25739489075980     -0.49618636866049
  H   3.26869785416954      6.42873655529808      0.25049135863470
  H   0.55590459313617      6.42195355191686     -0.73412190394813
  H   4.80998371430154      4.90149639279958     -0.64499461219642
  H   5.27162014839732      3.20424457551537      1.71107944164421
  H   6.49650464451872      4.11371101445510      0.80320885046767
