25
Coordinates from ORCA-job 14501optt
  Br  1.24972591204243     -0.14652309153193     -1.39969331456624
  C   2.94709561281584     -0.12370178565569     -0.00028874598726
  C   3.72049866363916     -1.29188637403360      0.07150886425976
  N   3.12732136854477     -2.55390335400793      0.16031369741780
  C   3.82446021489100     -3.60159236958928      0.02592631101536
  N   3.29767974777299     -4.87890468915028      0.06596387062113
  C   1.95634695300146     -5.21398234185903      0.20087543964524
  N   0.94358020470818     -4.48387754163616      0.38089082390746
  N   5.24661502583721     -3.55061236957660     -0.14829942454858
  C   5.90459542621069     -2.36307202541486      0.40291813880319
  C   5.10159415084696     -1.12248501838961      0.12134092112618
  N   5.77511716651939      0.00602292912124      0.02597126896550
  C   5.04294081938186      1.15761721927018     -0.12583287573778
  N   5.51689033064009      2.34169975638141     -0.28473966381587
  N   3.64614289205659      1.03043659495983     -0.06290400747082
  C   6.00336773811094     -4.50997619628131     -0.73492424734162
  O   5.63536290736038     -5.59544208295512     -1.14146043893907
  H   3.92493870992157     -5.60763278407626     -0.24465113155683
  H   1.83233865214954     -6.29665457420359      0.14667611326833
  H   1.19977448479380     -3.49570735531631      0.38774500882196
  H   6.89359226792883     -2.26131687952178     -0.03889353072216
  H   6.01983335918863     -2.47881880542212      1.48673851215668
  H   6.53015335483385      2.27207291340723     -0.28513074069371
  H   3.14371449652875      1.90322331569294     -0.13673517174868
  H   7.05731954027499     -4.20198309021129     -0.81031567687996
