22
Coordinates from ORCA-job 14505optt
  Br  1.04907690463167     -0.10492688135383      0.29303393037738
  C   2.91610610796955     -0.03505783985375      0.07895115565258
  C   3.69552677970194     -1.19154936266999      0.05495306665834
  N   3.27863422213894     -2.51076543552522      0.10278369032105
  C   4.35414835702889     -3.22804970081776      0.04770117696465
  N   5.50649050986473     -2.45899810163217     -0.03361146079216
  C   6.82545724945358     -2.92581582588228     -0.11599294118619
  N   7.85018896188659     -2.25355771861531     -0.41596670675836
  N   6.92732401182482     -4.29729260913204      0.15369846414876
  C   8.28799528030631     -4.78882939579396      0.19908170832503
  C   8.29720490341987     -6.22267530529251      0.50160366915941
  N   8.31585120277431     -7.33898565948877      0.75887968845299
  C   5.08968635589269     -1.12487966179628     -0.04324892691700
  N   5.95159327561628     -0.09845769733061     -0.13642790124497
  C   5.50909467778540      1.15320418513739     -0.11196651131289
  O   6.15923072837883      2.17432547214525     -0.17459329567918
  S   3.67331203695195      1.52468520331414      0.03618652824040
  H   4.38809119847843     -4.30429548077890      0.01010154867100
  H   7.59239360354362     -1.28170624843946     -0.59802261892820
  H   6.35141317933237     -4.60681214003646      0.92443003739400
  H   8.90688834995645     -4.26370608626206      0.93395729827117
  H   8.75529210306269     -4.62385370989539     -0.77153159981784
