27
Coordinates from ORCA-job 14502optt
  Br  1.07236164763338      0.60614836027490     -0.02608427678073
  C   2.78374715202694      1.38555662477942     -0.44140855540898
  C   3.23995324600109      2.44389095603333      0.41337247467839
  N   2.48787748316592      2.86069634163119      1.44633439659496
  C   3.05057143044277      3.31538124241538      2.56907683568433
  N   2.51515046279159      4.48608772743482      3.21999066869287
  C   3.20809942613552      5.57427275883783      2.58702010573537
  N   4.00476459376846      6.30226562651594      3.26573983075210
  N   3.00993740990671      5.68169951183660      1.19695686115015
  C   4.18425740032007      5.58870030429800      0.35382132621768
  C   5.05312089956967      4.30677943228013      0.54300581367856
  C   4.47758761809917      3.02728680341385     -0.02992450057111
  C   5.12524443235387      2.46304620443477     -1.12369522980130
  C   4.58739416787091      1.38877724528992     -1.80848854431896
  N   3.39501379264798      0.87739428449434     -1.46284516723294
  C   3.81330748631573      5.70871708306259     -1.10275960994543
  O   2.70294821757948      5.84333961799761     -1.53122976493683
  H   4.06243572396280      3.06946997003408      2.87565370536644
  H   1.52095476873840      4.53407051903776      3.00561669666639
  H   4.44025383710057      6.99270534980656      2.65487705727272
  H   2.31963765577159      5.00739807789670      0.88115894346090
  H   4.84537976717700      6.44164000926726      0.55842992358298
  H   5.26914183003114      4.23964173396969      1.60891234406875
  H   6.00645265928238      4.49169795911244      0.04014549986436
  H   6.06308422653487      2.89203513879013     -1.46372096102978
  H   5.08955401142089      0.93411288076956     -2.65270450682922
  H   4.68276865335103      5.64918823628512     -1.78925136661169
