23
Coordinates from ORCA-job 14522optt
  Br  1.28098911225236     -0.45434174571077     -0.81523842358457
  C   3.03438048046822      0.01973874998989     -0.31230681638594
  C   3.44934120720869      1.25589266180710      0.03114113953370
  N   2.86359895326481      2.47882647714474      0.16145572612142
  C   3.91998732337449      3.23579953504771      0.50951542630789
  N   3.78494086422587      4.59061932079811      0.78008071241923
  C   2.63144395345459      5.32608643208379      0.74467087139174
  N   1.45272903956534      4.99156343556577      0.44598281760887
  O   2.93662930165839      6.60849178564105      1.11064340595682
  C   1.83001660848383      7.48781047033798      1.11262949485846
  C   2.28577030331289      8.80753188050623      1.54516661330705
  C   2.63062071479177      9.89730867885427      1.90104025476788
  N   5.12954241154963      2.69515793533354      0.60538025257386
  C   4.87471737484243      1.38508213335832      0.29334577848887
  N   5.75477035936263      0.42831360531720      0.06224045126949
  N   5.37003299661898     -0.76285469361104     -0.26131149799634
  N   3.96414100812749     -1.01815215422332     -0.20128396901930
  H   4.63380662627609      5.06258839212940      1.04502386751483
  H   1.43626189904740      3.99868677944159      0.20998195583599
  H   1.05365766797963      7.11260632992846      1.78257114265754
  H   1.38917731880187      7.54229334272836      0.11488758426213
  H   2.94593717475576     10.86170331743255      2.21783031668198
  H   3.76550730057666     -1.84175266990110     -0.74844710457163
