19
Coordinates from ORCA-job 14529optt
  Br  1.60731551975762     -0.14193824382343      1.39075402228744
  C   3.26957191827118      0.01234688310407      0.55786089193194
  C   3.75719497473278      1.13125416947248     -0.09586296090041
  N   5.20767847723448      1.18088235769204     -0.24545168939199
  C   5.92287393435850      2.27888340685024      0.21795098270180
  N   7.07286252576120      2.26370550839115      0.75710709490203
  C   5.30720488303318      3.63875140855061     -0.05654997730475
  N   5.87197797627693      4.70640939144624      0.31055861936400
  S   3.83532473027867      3.73878765391514     -1.01367170799920
  C   2.96534164368970      2.18008645414048     -0.60982797873531
  O   1.75392126566802      2.19568344178241     -0.77883586343836
  C   5.81383823599421     -0.05311315900053     -0.37096430794320
  Br  7.38993324667604     -0.19402455390318     -1.41836618393227
  C   5.19190965104372     -1.18171122810396      0.05410213265194
  O   3.99382300040014     -1.14073461687752      0.68901252807386
  C   5.70382678500283     -2.49759416634905     -0.11416641855953
  N   6.11514151157413     -3.56561032916721     -0.22961936139298
  H   7.41244428948979      1.31846135658144      0.91505598916295
  H   6.74081543075680      4.45347426529856      0.79091418852204
