24
Coordinates from ORCA-job 14520optt
  Br  1.46813422805581      1.84391349805990     -0.80185367449020
  C   3.00326192193628      0.92131719849206     -0.24381607582267
  C   3.16148740071183     -0.39249681374454     -0.42593673074961
  N   2.23060439935157     -1.25182899773398     -1.01889770865235
  C   1.82097447718854     -2.35044388460120     -0.13458452834894
  N   0.62627007578233     -2.33392512206045      0.41174687899051
  C   2.77231733017797     -3.37537790270082      0.09998109168006
  N   2.63669096791287     -4.47762183375092      0.76156064813648
  O   4.06264443961472     -3.19126498769961     -0.57816449928308
  C   4.85998871477264     -2.19397228695595     -0.26052708024686
  C   6.23388260517483     -2.21474858903925     -0.23323234341166
  C   6.71695764122329     -0.89393679242900      0.08586340024987
  N   7.89154352596185     -0.39694775318381      0.27039250491481
  C   5.48733843381488     -0.08339935204569      0.21348345324991
  C   5.28692656390912      1.21971324387327      0.36804057085044
  N   3.98381993642771      1.72800741436197      0.38668426181493
  N   4.36972010008580     -0.95169120235142      0.05943070700611
  H   2.59355931903082     -1.60515010108265     -1.89885088250783
  H   0.14989626037289     -1.50192721301756      0.06955866021150
  H   3.51604934176700     -4.98655368823278      0.75181816146530
  H   6.82982247420838     -3.10240176942852     -0.36109733224005
  H   8.59488400423994     -1.12144641061050      0.14174575189569
  H   6.10860765291668      1.90996997506307      0.48696142536312
  H   3.89361818536214      2.71121337081840      0.18769333992453
