26
Coordinates from ORCA-job 14525optt
  Br  2.49972248425991     -1.38679986124920     -2.72310565327342
  C   2.79773403975696     -0.52510614427689     -1.07068004909427
  C   1.89767285832631      0.41051458968934     -0.57958063654104
  N   0.79792707019026      0.93452702675983     -1.29250749444653
  C   0.75647593667955      2.34416365493402     -1.03531401714103
  N   -0.28103560337113      3.00143219119760     -0.73977310874206
  C   2.07935101326182      3.05440797319161     -1.20930071541532
  N   2.72192215616457      2.82813646293205     -2.27162342354627
  O   2.47229149887061      4.00657011556528     -0.32546412095593
  C   2.38732677186873      3.82824276573308      1.08180435161601
  O   3.55641299669054      3.27332609058807      1.59872279737464
  C   3.44537867180242      1.96202092737068      2.22368365767916
  C   3.16959769572792      0.85100464367571      1.28515334007220
  N   4.23892354283728      0.15626659390741      0.67748927477116
  C   4.05229798172484     -0.72091512482588     -0.40092303153148
  N   4.94959326476187     -1.56519984813558     -0.78442249054930
  N   2.03353118764434      1.01349111200253      0.58943330579970
  H   0.83931759536044      0.72103696891613     -2.28381741321788
  H   -1.06589254512471      2.35266509508726     -0.67799061370151
  H   3.58572252364140      3.36923778065652     -2.27299400511279
  H   2.30645338657445      4.84899573801790      1.45823799867031
  H   1.50756637585613      3.23972752974736      1.33847011243636
  H   2.63667690594243      2.02072727524415      2.95835216918727
  H   4.39296502086493      1.83656845388315      2.74875496516765
  H   5.03965140322539     -0.04581566552831      1.25447749440586
  H   5.77441576646255     -1.49322634508392     -0.19208269391149
