25
Coordinates from ORCA-job 14524optt
  Br  0.52532376752451     -0.26789472840822      1.48965907053509
  C   2.22148418662250     -1.21738946669060     -0.23526345638852
  C   3.24023860069519     -1.99398363643000      0.28364057738405
  N   2.86487760184937     -3.04088158877618      1.16215370170650
  C   1.94020901285192     -3.79324383678092      0.73431127562033
  N   1.46226368671505     -3.80639094330115     -0.61637606100889
  C   0.25931829230515     -3.13656492201317     -0.88311947617780
  N   -0.76892109406048     -3.30027803119184     -0.18173204274751
  O   0.36837197929583     -2.36575707911032     -2.02234830383600
  C   0.13622201348025     -0.95899638928565     -1.92431190904646
  O   1.30553096824708     -0.22252835804793     -2.19925538075080
  C   2.39056233403685     -0.54545076098599     -1.41534949811619
  C   3.67937056633847     -0.33349638197810     -1.91162113528386
  C   4.74944481552718     -0.92533010537140     -1.26083934996443
  C   4.55044515508674     -1.81382044594598     -0.18941370402192
  C   5.64151632278239     -2.58152365717443      0.32106118678348
  C   6.56865504608211     -3.22376596451107      0.73665772710934
  H   1.47818366291545     -4.51897383036344      1.39394263973738
  H   2.17244970799949     -3.43009386399836     -1.23217682737698
  H   -1.52596832073091     -2.69795296930470     -0.48864653581043
  H   -0.25639968611382     -0.72437420126799     -0.93515016319060
  H   -0.55031403528625     -0.68564067759084     -2.72237741413303
  H   3.82436263539234      0.23834424784261     -2.81986299047346
  H   5.75643594613167     -0.77692652309083     -1.62825675253044
  H   7.37933683431182     -3.79408588622346      1.11867482198116
