22
Coordinates from ORCA-job 14523optt
  Br  1.20241816155763     -0.11877217408660     -0.30300470435880
  C   3.07918746721493     -0.23261542497465     -0.20262217450234
  C   3.74327364615085     -1.39506002252285     -0.09329511366313
  N   3.04108053173917     -2.59890089425589     -0.03770125058933
  C   3.73121864117694     -3.65906008284725     -0.01337567939948
  N   3.17308737890577     -4.91977222297917      0.07587901724153
  C   1.82625927004374     -5.24047452789015      0.18509038579157
  N   0.81912881520376     -4.48331002986685      0.21053945328754
  O   5.06526123932677     -3.76643982815400     -0.07368341263149
  C   5.88668584324494     -2.59882541522790     -0.12211694476205
  N   7.14003627383108     -2.81647751104785     -0.25905466582119
  C   5.19438796074776     -1.36145358673653     -0.01777263851034
  C   5.77664595598771     -0.08314348893548      0.09761358666283
  Br  7.60023088706675      0.15788723267450      0.55092196426945
  C   5.01876623641491      1.13074281195852      0.02149183869458
  N   5.36432033616714      2.35252103773104      0.14075876663860
  O   3.65864634542618      0.98094470687197     -0.26672241988974
  H   3.83937630101615     -5.67319898112772      0.08101044645384
  H   1.69156759149679     -6.32077211945932      0.25582553261874
  H   1.09663752390381     -3.50293243046089      0.13492417308600
  H   7.31041286717669     -3.81843617868437     -0.28667463602646
  H   6.36137072620044      2.40354913002153      0.31896847540966
