25
Coordinates from ORCA-job 14530optt
  Br  1.64346780989492     -1.82236741698075     -1.10258244004261
  C   3.14507897482025     -0.68638404200208     -0.88957229904388
  C   2.99826309877671      0.52932107035432     -0.25072982842561
  N   1.77680040188172      0.80827427864435      0.36832002097661
  C   1.10285762431796      1.73325667547850      0.88063257975359
  N   -0.07762801336967      1.37109206534041      1.54256327287031
  C   -0.98579931615212      2.17519199202623      2.15952175548245
  N   -2.01311616825324      1.69412600002608      2.73849390227681
  S   1.40823954798862      3.54157321537931      0.90273235910208
  C   2.88055892956837      3.31931086444488     -0.01527395311616
  C   3.83686021871882      2.59089843078461      0.59197695553269
  C   4.18629441575573      1.34483200935929     -0.07656883374229
  C   5.42748824911724      0.89498161274508     -0.44489733086645
  C   5.62186044204486     -0.34225082854025     -1.12763814224328
  N   6.76667995571786     -0.81016167208263     -1.54002901199494
  C   4.40175861568134     -1.17545657938620     -1.41321331311086
  N   4.48324547445694     -2.28659378803933     -2.06342305613665
  H   -0.26038969758955      0.37519536299598      1.54413622571430
  H   -0.74957352563797      3.23793470717413      2.11134620464938
  H   -2.56840710703659      2.44422075805287      3.13590927967393
  H   2.72840539328909      3.21116834443941     -1.08284347778545
  H   4.03837493120208      2.72709292397900      1.65246607095711
  H   6.29386081764180      1.52300742248740     -0.26389304255640
  H   7.50788172667460     -0.15723548072677     -1.29100724529859
  H   5.46893720049016     -2.41802792595384     -2.29842665262611
