23
Coordinates from ORCA-job 14531optt
  Br  2.66118269927272     -1.61588934237775      2.01991917129832
  C   3.52968133272370     -0.50721978251380      0.71193714040547
  C   2.98032478507237      0.71501970837552      0.39081332051720
  N   1.84515456388093      1.18044073882277      1.11637327734168
  C   0.79956917030894      1.81240575854642      0.54055312619854
  N   0.07264250397776      2.63670498737219      1.22056923774163
  C   -0.84740529990096      3.43375213832231      0.60911717092921
  N   -2.05185944414787      3.64703116303549      0.95164166652308
  S   -0.34194419503045      4.53737696024619     -0.75186716323691
  C   1.37629336392118      4.28414699741020     -1.07138283461993
  N   1.97766777928977      3.20155361679694     -0.77731436262421
  C   3.23215463868190      2.79247632090617     -1.01289125416954
  C   3.66927062023866      1.54084055258466     -0.55274571052697
  C   4.95766559836220      1.06561172548091     -1.06934494270483
  O   5.67121604968882      1.73798931465472     -1.83634408055033
  C   5.34420429562839     -0.24937234451739     -0.62345654573711
  N   4.66428218494325     -0.99158105443185      0.21884359559814
  H   2.02611546565927      1.47732648333532      2.06734932780215
  H   0.52848703613763      1.44112766515271     -0.44369955980563
  H   -2.27054154253398      3.03534932083271      1.73834894588687
  H   1.83618167136230      5.13229397557167     -1.58696435296003
  H   3.92047500515959      3.37455040236982     -1.62295698409576
  H   6.27718171730386     -0.64793530597596     -1.01049818921103
