22
Coordinates from ORCA-job 14533optt
  Br  0.99576576904054      0.07685298768198      0.11635737364522
  C   2.87922846469962      0.12729934833979     -0.02384946007211
  C   3.56465578599367      1.27665809417719     -0.28525623272092
  N   2.85471254684843      2.44251611388249     -0.64430525735885
  C   3.11585260247369      3.54807131083588     -0.10590611110527
  N   3.99895498678194      3.76682811535764      0.99395032582196
  C   5.15130960414428      4.48713338984804      0.60825189498192
  N   5.26424526070961      5.71838172617235      0.40824240212646
  S   6.52215762217152      3.35567748728088      0.27387781332987
  O   7.54756803822981      4.01670175601746     -0.47115286738119
  O   6.78555657790958      2.75880906201259      1.54945025585229
  N   5.78780086440526      2.29477349675339     -0.72096856431142
  C   4.99134787825638      1.19080951959847     -0.28915516283119
  C   5.59961316607564     -0.06913557721898     -0.09749240944061
  C   4.86799056187904     -1.23439754123161      0.17475549038524
  O   5.24317156000170     -2.37276907094016      0.36452482836223
  O   3.43989461065121     -1.06490486126286      0.25861392790178
  H   2.63711431992472      4.45288758820022     -0.47189501736798
  H   4.25776610465636      2.86991298723004      1.40512350590571
  H   4.39325019118841      6.19061259050922      0.66012442409952
  H   6.21680381707830      2.28783787705599     -1.64062394848277
  H   6.67423966688015     -0.16555640030005     -0.12466721133989
