21
Coordinates from ORCA-job 14532optt
  Br  1.85743347491741     -0.08938373614253     -0.77454299320434
  C   3.51332643980784      0.78126515160794     -0.49535698499563
  C   3.64960373633229      2.10630156144638     -0.25433178423025
  N   2.64455217886020      3.06631937728151     -0.31979081103778
  C   2.35099350887524      3.59378620601446     -1.43213146340267
  N   1.58160214878410      4.74548938493903     -1.47056803945510
  C   2.04524056851959      5.75098509470553     -0.82927524545274
  N   3.25173222094833      5.93210934025387     -0.22794203621890
  S   4.83541333217392      5.19516385277487     -0.55629593729414
  O   4.66807954355331      4.80876640564840     -1.93797989543113
  O   5.63937961327756      6.35197086058189     -0.21832481271703
  C   5.23436065660928      3.94182657279602      0.44356441066294
  C   4.88967585137329      2.57014447917323      0.29894396974979
  N   5.69056796910079      1.61675951805335      0.89821538929642
  C   5.48014113264640      0.39143088073972      0.65384577359276
  O   4.55591454717222     -0.09067074899734     -0.25512164232768
  H   2.69132316245132      3.19773607058656     -2.39103485873144
  H   1.39794123579307      6.62455210377960     -0.74426620036756
  H   3.41172533758575      6.85355934931522      0.14910271179423
  H   5.92053194100662      4.24486749950665      1.21879400081331
  H   6.03046140021139     -0.41097922406443      1.12649644895694
