21
Coordinates from ORCA-job 14546optt
  Br  1.11427399819993     -0.12111320517079     -0.06000054715748
  C   2.99342864679372      0.05578540055530     -0.06352918786890
  C   3.60563508898160      1.25835747162715     -0.10057022289636
  N   5.00757972739590      1.27403019514293     -0.08587465626633
  C   5.46960469093615      2.63424501110082      0.05742280721171
  N   6.63900140345415      3.00541341486503      0.36750171902917
  C   4.27564324109468      3.51803739792476     -0.10499570095048
  O   4.32805627529304      4.74946104424879     -0.11490333524591
  C   3.10176577389233      2.65654720224666     -0.15940537245574
  O   1.91363032802434      2.97385157102058     -0.22480932053281
  C   5.76759890889768      0.14603956339595     -0.23884562049646
  N   7.02078350019269      0.02135749873989     -0.48883605192933
  C   4.96388486283906     -1.09237322006709     -0.09155685360111
  N   5.72293859861745     -2.25022895677064     -0.06829014586719
  C   5.23285362382239     -3.51340104819307      0.09099200031908
  O   5.93025529261246     -4.50080693122245      0.09377095208160
  N   3.68590414888691     -1.12259256372262     -0.01609635221631
  H   7.26179028217260      2.22474199449750      0.55086709325566
  H   7.47785090675618      0.90233152386364     -0.68912977408274
  H   6.71885285037207     -2.11092761658805     -0.20257955725560
  H   4.14366785076461     -3.53575574749428      0.21786812692554
