24
Coordinates from ORCA-job 14543optt
  Br  1.35685520370276      0.36467581372191     -0.39865817301454
  C   3.08082276733684      0.03272031729397      0.47194278854840
  C   3.70655269684517     -1.20503419062288      0.26411450588239
  N   3.16401898496118     -2.47931815863752      0.21463941580767
  C   4.15773256033654     -3.28891136982194      0.09440481008683
  N   5.39373760054319     -2.61787776241539      0.06263299495909
  C   6.62073249452420     -3.23706667645860     -0.02289394159837
  O   6.75002215339630     -4.43484433920206     -0.10968515440584
  C   5.10006758791160     -1.25129137049785      0.15675525595898
  C   5.90611988224855     -0.11887074844758      0.14046251045953
  N   7.32156126853158     -0.18252589829896     -0.00270115373998
  C   8.04846810798141      0.14200084400626      1.23091070984103
  C   9.48518758124337      0.26143056604016      0.98207404216914
  C   10.65443852510899      0.37394703515568      0.74393899289055
  C   5.24083354992002      1.14948138367801      0.24489064197435
  N   5.75086397913588      2.32744129030621      0.18233629003358
  O   3.87247210140230      1.14720023603612      0.46112003199815
  H   4.12478621621261     -4.36234513611313      0.02145303289946
  H   7.45468141325234     -2.52635448961440     -0.00953965231233
  H   7.65281211835400      0.41070355761997     -0.75740951147149
  H   7.87347377302214     -0.66375387352326      1.94898753110062
  H   7.68637126876902      1.06832026850665      1.69491311354449
  H   11.69302109588344      0.47077271713072      0.53937726813203
  H   6.75136706937636      2.25549998415795      0.02393365025623
