21
Coordinates from ORCA-job 14542optt
  Br  1.00879038553397     -0.05159163737279     -0.05876650995762
  C   2.90473348130632     -0.01544210624277     -0.05221595178205
  C   3.63112613658515      1.17787264014254     -0.05089085196435
  N   2.97469338019976      2.39177201110554     -0.05165850346494
  C   3.65699998880943      3.56482913292527     -0.05012281401111
  N   4.92961070164394      3.67498664115129     -0.04833603454341
  C   5.71960864968614      2.50328647492391     -0.04786134668916
  O   6.93636425140372      2.59892092441143     -0.04695769246316
  C   5.04208766780324      1.20705700557634     -0.04860869088392
  C   5.77343801488345     -0.02091882294560     -0.04745266116667
  C   7.17848800855031     -0.14549672134606     -0.04590184160362
  N   8.29824630975080     -0.43868977555604     -0.04457415599579
  C   5.02332190356326     -1.24420490583965     -0.04766695388519
  C   3.62598509903430     -1.22033239297324     -0.05013218044154
  N   3.21909853631376     -2.50646284800368     -0.04949610522149
  N   4.25261470629868     -3.38335704391803     -0.04664831084909
  C   5.33736103685883     -2.62214965879837     -0.04559738336141
  H   1.96751746461863      2.39393928381705     -0.05287356278137
  H   3.03015292118240      4.45354566194300     -0.05045250792995
  H   2.27309391100825     -2.84246038066624     -0.05051182518074
  H   6.31766744496561     -3.07210348233391     -0.04327411582343
