23
Coordinates from ORCA-job 14550optt
  Br  0.88339731268606     -0.05529644952325     -0.26623939043358
  C   2.76934074419181     -0.03543266914108     -0.03677242016384
  C   3.49926095153204     -1.13470302651957      0.06241520942186
  N   3.21678094576935     -2.49100552035192      0.06163372034547
  C   4.44988334414908     -3.21147548203766      0.03285311299217
  N   4.55965269490340     -4.48893926136563     -0.07727643166882
  C   5.48431743693912     -2.23338627613963      0.18303367743587
  O   6.78504675171241     -2.62351023323640      0.41141264680113
  C   7.74133400264001     -2.11565977838520     -0.38968049941576
  C   7.68321423268472     -1.14971932230302     -1.34005087835531
  O   8.92518817198531     -0.97966666271473     -1.88591346838878
  C   9.75712621611049     -1.84194289176310     -1.26994879989719
  C   9.09777519545671     -2.56868177215328     -0.34017555599748
  C   4.94602632298473     -0.94907652443102      0.23411623850422
  N   5.48073238518470      0.24388834804076      0.45847473160237
  N   4.74507385915820      1.34118793647514      0.41923923849273
  N   3.40161434666422      1.20679617272078     -0.10475497801397
  H   2.44586576612183     -2.83891645056910     -0.48783399474213
  H   3.63702074200821     -4.91646598385789     -0.11900347178562
  H   6.90108495694169     -0.49375252250473     -1.67256799544497
  H   10.78227957254987     -1.83084427292705     -1.59757783253775
  H   9.49514160178972     -3.33381916140242      0.30425739420256
  H   2.85684244583616      1.96142180409005      0.28835974704683
