22
Coordinates from ORCA-job 14556optt
  Br  1.28666240163699     -1.38493689561693      1.35484414413063
  C   2.93953406205993     -0.71102022608733      0.70510341377342
  C   3.07527321795773      0.60426123268504      0.35882646224563
  N   1.97924201472881      1.45454309726903      0.49802070693952
  C   1.85648256147899      2.81608356433754      0.40830342408059
  N   2.56453190651242      3.72659814562998     -0.11290928607983
  C   3.76964872907813      3.50891213042219     -0.82761999128664
  O   4.12080770276727      4.38929432099626     -1.60194109242101
  C   4.60427761464993      2.35059341947739     -0.63975043861634
  C   4.34385487373227      1.06996905493814     -0.12514908734985
  C   5.36639236402838      0.07401743715879     -0.12550275323984
  C   6.78062026119405      0.44407519346261     -0.55110806117175
  C   7.43691382412270      1.38265374288014      0.36083424901771
  N   7.97554090163753      2.09742496811899      1.07728403252882
  N   5.23657786753792     -1.18555677638190      0.19562859088600
  C   4.01545796801102     -1.68633173801980      0.59993974597463
  O   3.85744898142195     -2.87474597033818      0.85841156729194
  H   1.18014513710838      1.00052890198492      0.91514444676665
  H   0.92424767456433      3.13503710949101      0.87749298061735
  H   5.57761291551485      2.52351895746379     -1.07616339556119
  H   6.79695165861972      0.87652164249778     -1.55371582069696
  H   7.35777536163656     -0.47844131236949     -0.56197383782947
