22
Coordinates from ORCA-job 14554optt
  Br  1.54322520277745      0.18979780441471     -0.45985608614264
  C   3.40584676004716      0.08836261117958     -0.16261165662408
  C   4.18975291517502      1.25680656539667     -0.03857967986609
  N   3.64728207992216      2.51779811810950     -0.14230774354508
  C   4.30616587242484      3.73149094701717     -0.03913021310252
  N   3.72004621021350      4.86624982981251     -0.15528957640258
  C   5.79323051035661      3.66311180476613      0.22320612373519
  O   6.44854283136215      4.70020124902482      0.32981729540244
  C   6.31263306940780      2.34707764197563      0.31994801429629
  Br  8.18082698477831      2.20432215701117      0.64160717827228
  C   5.56284815092242      1.16946840373740      0.19766165173375
  N   6.14080327325086     -0.08868182922449      0.30498875117523
  C   5.39749956095731     -1.25239559964291      0.18945699256752
  C   4.02955016174361     -1.16133338909595     -0.04867800576146
  S   3.33528635248494     -2.73749316916719     -0.15303949677605
  C   4.85977802920012     -3.49991907117716      0.12032673594815
  C   5.86091101079165     -2.57924714947876      0.28413780918415
  H   2.65592606095759      2.56242793194023     -0.32569916745534
  H   2.72306899120601      4.73851411768970     -0.33162906398733
  H   7.12737487633037     -0.12671410814875      0.49971260353795
  H   4.93351721227381     -4.57346924389926      0.14118777130169
  H   6.89388388341626     -2.84237562224075      0.46876976250854
