27
Coordinates from ORCA-job 14564optt
  Br  4.13779397740851      0.53257067611662     -2.94421486038803
  C   3.86838242019071      0.04342001794578     -1.12053922343136
  C   2.65772832920896     -0.47080733413818     -0.68075499249135
  N   1.58369659229090     -0.80518660699238     -1.51959890753494
  C   0.64469273173644     -1.73468856408373     -1.01691394738715
  N   -0.70472443095025     -1.34245501247927     -1.17060365988843
  C   -1.73606014569066     -2.19583724492927     -1.32618523085202
  O   -2.91077635984144     -1.87659998622016     -1.35301876650204
  C   1.05946825044581     -2.64085145508525     -0.09671439066299
  C   0.40718576296507     -3.09736329512493      1.09060657937359
  C   1.02748300247501     -3.12270161734127      2.33048216934582
  C   2.25488709586570     -2.64592063103655      2.88355285907605
  C   3.32072163638315     -1.79697121552722      2.55013916849596
  C   3.52450813534338     -0.96647141311436      1.42040632571792
  C   4.79160295112212     -0.43077800203200      1.04834627042145
  C   4.93632170949241      0.10888230935199     -0.20533035391385
  N   2.47737531513636     -0.76027915997986      0.59831303189312
  H   1.72784293370853     -0.68540614158755     -2.51032014879277
  H   -0.93335336068973     -0.36068306311930     -1.07307657082568
  H   -1.39611091163909     -3.23687346449707     -1.43977373477393
  H   2.11973830011072     -2.85016807886663     -0.12754604660370
  H   -0.65034841624134     -3.34020518216517      1.07265487551132
  H   0.41736752411884     -3.59847194120679      3.09692146770794
  H   2.39429782964045     -3.05795018705757      3.88160157682634
  H   4.13622366130519     -1.79458562626945      3.26813980548503
  H   5.63926875061591     -0.50210673577107      1.71882520252479
  H   5.88578671548831      0.51448895521066     -0.53139849833114
