23
Coordinates from ORCA-job 14569optt
  Br  1.17636351334210     -0.12627213056423     -0.31955493893860
  C   3.06794872753440     -0.13631254096706     -0.08284658027601
  C   3.72169623724545     -1.35166694876368      0.08180601677321
  N   3.02321215206147     -2.53113554193716      0.06372456056977
  C   3.53161957748648     -3.80946776816436      0.22315032452563
  N   2.83389714052935     -4.89701107620698      0.19469014730928
  C   4.96205484491790     -3.77821200995448      0.42910458078669
  O   5.54311829127462     -4.99247278736016      0.60951824063129
  C   6.93616004066380     -4.94234405797120      0.83439457647764
  C   7.43361597211153     -6.30459778283097      1.01774582909784
  C   7.88026219786840     -7.40450259538663      1.17372758688761
  N   5.67813492889988     -2.70688341257537      0.45054735113370
  C   5.14060285657708     -1.46362984753935      0.28228888625689
  N   5.98247819293915     -0.44120400381977      0.32444253455332
  S   5.46177450981542      1.11229693898713      0.13161135562625
  C   3.69972814858945      1.13823391069990     -0.10230587826804
  N   3.08820212455752      2.25530372475735     -0.27301978289710
  H   2.02610901561906     -2.45504641207981     -0.08332808532218
  H   1.85043380554090     -4.68448694822107      0.03464634090869
  H   7.16059217450381     -4.33667180570138      1.71654739707834
  H   7.44389633430889     -4.46357457988085     -0.00689484128394
  H   8.26535248885337     -8.38536725823337      1.31158612328685
  H   3.74574672475992      3.03302493371352     -0.24958174491717
