23
Coordinates from ORCA-job 14572optt
  Br  -0.88794449059685      1.51854779361533      2.07895928240215
  C   -0.26630566363100      2.93187602586443      0.43837676356361
  C   1.08035904379333      2.84508561585352      0.10602279453784
  N   2.02023696930802      3.35774644641595      1.03418875469719
  C   1.84325782899011      4.63402604008577      1.52329524643003
  N   0.79073427824794      5.30735711141977      1.71741574248456
  C   -0.54542334132042      4.91592522824754      1.88589186610728
  O   -0.93581172293877      4.52940596370960      2.96149225715657
  C   -1.57585541048649      5.45723700102614      0.92127456148354
  C   -2.41120471931116      4.84240221135607      0.06521372714685
  N   -2.39949197449429      3.54490744497637     -0.45880055847880
  C   -1.13137608892835      2.95056842055936     -0.65166698013333
  C   -0.69074528186136      2.50609300938160     -1.88901274509095
  N   0.57615666803765      2.15534832465034     -2.12649893458782
  C   1.45524164774435      2.40663353500297     -1.15513324160157
  C   -3.50667710058565      5.63228917077724     -0.44772737717365
  N   -4.39265019368761      6.22425485458024     -0.87698648610314
  H   2.98425081335565      3.13063861323712      0.84732418810335
  H   2.79601145542412      5.12654611732923      1.72979643271922
  H   -1.79709321637868      6.50251206203765      1.10894962034987
  H   -3.04380876090927      3.42496211410281     -1.22572437165690
  H   -1.37745973223964      2.45136291416827     -2.73181822055918
  H   2.50759899246835      2.27327398160259     -1.40183232179672
