21
Coordinates from ORCA-job 14574optt
  Br  0.84748082470523     -0.57494877464217     -0.02786691937310
  C   2.70913711749285     -0.31838213108891     -0.02929432851993
  C   3.62145096148398     -1.37781224242099     -0.02957983196694
  N   3.37484240512943     -2.71003010003770     -0.02961775870616
  C   4.61762467138534     -3.22746911057345     -0.02994334281677
  N   4.71215135102571     -4.62496076261528     -0.03002516301048
  C   5.81019034370166     -5.41983521226473     -0.03028111189356
  O   6.96917833940996     -5.07408988171681     -0.03060151518997
  C   5.45522076218192     -6.85228637265074     -0.03003178550705
  C   5.21958704882940     -8.02764422048002     -0.02983226867797
  N   5.65104315077934     -2.39362122396191     -0.03004136215151
  C   5.03260286772469     -1.18511955139476     -0.02984363999621
  C   5.65427308471471      0.10508815791339     -0.02965858562378
  C   7.12999025882742      0.21381913136021     -0.02958161681885
  O   7.74150220694005      1.25930680709470     -0.02947793276723
  C   4.92454363822391      1.24572627862781     -0.02944010509610
  S   3.20837592727193      1.35111056705222     -0.02940822107201
  H   3.81145105097212     -5.07863977364017     -0.02982462025382
  H   5.01996367751437     -9.07203116456479     -0.02965615019586
  H   7.65536042727502     -0.75465697501572     -0.02971616151140
  H   5.42402988441090      2.20647655501987     -0.02927757885130
