26
Coordinates from ORCA-job 14570optt
  Br  0.87879310587538     -0.11223817354214      0.32445954507312
  C   2.99569460610789      0.14872201745063     -0.80349222831784
  C   3.67683084635291     -1.07925744407852     -0.75352077777809
  N   3.04283076199784     -2.26840336103265     -1.21207998827105
  C   2.78465734090500     -2.41917189583061     -2.58350251645041
  N   3.12990904749761     -1.64364389565864     -3.51652901129098
  C   2.53986924223516     -3.21272702304372     -0.32831119959627
  O   1.92629390236062     -4.19125848905613     -0.69140916498860
  C   2.94554357345326     -3.00773842857322      1.10750073793791
  C   4.29430028258848     -3.70169485000208      1.33871396740657
  C   5.45758292024482     -3.47479818687855      0.38194217757458
  N   6.31072357651308     -4.38608092471271      0.11744503728385
  N   5.74989851995254     -2.20650347831852     -0.07404385565752
  C   4.96860128799650     -1.06510060677208     -0.25570322850219
  N   5.59935092140740      0.08706862084215      0.02173020336733
  C   4.89278435089484      1.19254149722450     -0.16446115979389
  N   3.62041911020901      1.28335231162895     -0.52782655973424
  H   2.23633653242091     -3.33112900444770     -2.79105137980686
  H   3.61629804761314     -0.82094749980984     -3.15877839358491
  H   2.19282276044257     -3.49751371734951      1.72184671712773
  H   2.96187583609609     -1.95417973710982      1.37163481492956
  H   4.12433039175840     -4.77855742160704      1.35112526696622
  H   4.66703447479255     -3.41801969863469      2.32681553238565
  H   6.04885302093326     -5.25710880360011      0.56788871092879
  H   6.72221207362153     -2.08381058192115     -0.31906083897853
  H   5.41615346572912      2.12819877483326      0.01166759177009
