27
Coordinates from ORCA-job 14579optt
  Br  3.37287952674033     -0.28232553103681      3.07587115296566
  C   3.17531563568108     -0.20300157502546      0.61102359588231
  C   2.49991457777294      0.90972095229102      0.17450336057804
  N   1.42615325884824      1.42030458573204      0.92634127209094
  C   0.21905922361655      1.80926494643813      0.41516486434458
  N   -0.32094087877116      1.44700627937141     -0.68009520791031
  C   -0.37823814844828      2.94847629445807      1.20413222026665
  O   0.22491671115474      4.19614984384853      0.85036803614420
  C   1.56230461847275      4.17709235233812      0.39984434027336
  C   1.68647702365301      3.77114993082579     -1.07255613259763
  N   1.10759159161949      4.42815240393201     -1.99283379159200
  N   2.58559654152480      2.79085191024535     -1.46561660366430
  C   3.07350034013146      1.59667850888459     -0.93371221491775
  N   4.08957765721509      1.12635303209085     -1.62475568282786
  C   4.70851166411286     -0.03265550308407     -1.24511198689432
  N   5.66918006431204     -0.62208685909224     -1.85870652239892
  N   4.25207356609096     -0.61720482649917     -0.05178281042109
  H   1.60717356882853      1.54087024865327      1.91473150598211
  H   0.24824535562045      0.73166984276085     -1.13584944465834
  H   -0.23892186013390      2.77839584460534      2.27815956418357
  H   -1.43726063626028      3.04263310706899      0.97869498822711
  H   1.88559362187136      5.21840497018409      0.44361007755752
  H   2.22097608439074      3.59316851554820      1.03951550282815
  H   0.54149421927072      5.16656471644106     -1.58052226387044
  H   2.86115477377820      2.89205858472562     -2.43379047279413
  H   5.89638079618058     -0.07661195260937     -2.68443600561512
  H   4.77329110272661     -1.41808062309630      0.27580865883800
