21
Coordinates from ORCA-job 14571optt
  Br  2.96991313096586     -0.52588922242255      3.55190817924942
  C   3.70121002237615     -0.73276415399592      1.83907058262938
  C   3.21801412045473      0.04875995084462      0.78940273699366
  N   2.31990271811776      0.97950871544018      0.94446957295123
  C   1.63349063815752      2.00102382873606      0.45201477881932
  N   1.32700517861992      2.56050621504535     -0.76906958657182
  C   1.22957304492004      2.32886458188672     -1.99975003549999
  O   1.51971009889061      1.17024752104269     -2.71233019710207
  C   2.12317369066518      0.25323673136793     -1.89894412201045
  C   3.40832251758257      0.35984810150381     -1.61747207962676
  N   3.86422225032202     -0.26321014699366     -0.45508623564613
  N   4.99460927824621     -0.97623272592967     -0.57259276290544
  N   5.44777818665547     -1.61788674483447      0.39072389874279
  C   4.77445008843281     -1.65604453382645      1.66112872331402
  N   5.20931055957728     -2.47259841148056      2.55069756123203
  C   1.00749451212486      2.78573514595080      1.49458161052948
  N   0.49606705615858      3.40255041618031      2.32340509047837
  H   0.85469162815429      3.07556656121859     -2.69090589444948
  H   1.46660288040711     -0.42664986668927     -1.36571315883462
  H   4.07345698233705      1.03168137155231     -2.14704282264866
  H   6.00800141683389     -2.96525333459683      2.15450416035571
