23
Coordinates from ORCA-job 14576optt
  Br  1.57976239971649     -1.06621582842983     -2.11783625764140
  C   2.89032789058039     -0.16491602800311     -1.08828050598171
  C   3.17242246036471      1.11386285510209     -1.32612182886445
  N   2.49140963949665      1.96371711523573     -2.22143528587677
  C   1.58371555474733      2.85222680241289     -1.69381257344850
  N   1.42103698175734      2.94255506846990     -0.43677984445344
  C   0.56976577851244      3.95179978394810      0.07132773566171
  O   0.08064654045214      4.81909677084339     -0.64528308781603
  C   0.26501400026608      3.88640791599914      1.49453806584457
  C   0.67722425214708      3.04653554397582      2.50968057389033
  N   1.62901259621276      2.10409721500278      2.55004112523556
  C   2.70177906115017      2.26861770429710      1.81927836907192
  C   3.43265038716207      1.23537444615654      1.19333305877952
  S   4.35684717628794      1.86232956367150     -0.22877528466670
  N   3.22757475191635     -0.05857678181504      1.28880771948095
  C   3.35055545934060     -0.84864042314750      0.17288358955946
  N   3.64132528067964     -2.09555364296859      0.14677421243077
  H   2.32599043201563      1.62987898177758     -3.15834216848076
  H   1.05428833812351      3.46716192713334     -2.42392933560710
  H   -0.53098334673803      4.57208893317049      1.75974911337945
  H   0.08151052942101      3.11174037981837      3.42067048516669
  H   2.99575983888905      3.28284433106056      1.54694182376513
  H   3.85636399749861     -2.38443263371129      1.10157030057078
