24
Coordinates from ORCA-job 14577optt
  Br  1.16969131074361     -0.56066831296197      0.71096876933147
  C   3.01628803058821     -0.94588772184957      0.54108348405566
  C   3.60829585025764     -1.81575173918214      1.39464961827824
  N   2.88983664004210     -2.56304951998655      2.34376945982236
  C   2.38744735806774     -3.67199042821757      1.99104167514200
  N   2.35591089804605     -4.22573752560536      0.69836730866022
  C   3.44048458577795     -4.42874030594052      0.09856612564664
  O   3.48954731435807     -4.77794573169118     -1.22203512803295
  C   4.49822260993213     -3.97465752213378     -1.79321624108212
  C   4.19860165161791     -2.75266287808388     -2.21606268915140
  N   5.13521666020437     -1.65482530428171     -2.26505806717820
  C   4.91293630169050     -1.20515924200450     -0.88667966138767
  N   5.60686763547633     -1.81281375141888      0.03994686035916
  C   5.06093291098553     -2.04510467490634      1.27463189636380
  N   5.70385796577840     -2.58548983782111      2.26628013349454
  C   3.67460363094084     -0.49153013685872     -0.67627661410053
  N   3.08610132179965      0.28589202459616     -1.54312995049983
  H   1.81441242434923     -4.23150942381443      2.72674448401842
  H   4.42161402086028     -4.32709461402556      0.56790022615327
  H   5.50977507137001     -4.33485523254920     -1.64324617777109
  H   3.15933708875967     -2.44972443766126     -2.28059288318321
  H   6.08014587168400     -2.02927080669627     -2.28421216187183
  H   6.67144624894966     -2.70468563709449      1.96515446084654
  H   3.69342659772007      0.36126276018884     -2.35859492791348
