21
Coordinates from ORCA-job 14587optt
  Br  1.23487128480673      0.00354704533485      0.11493695170401
  C   3.11349452460423     -0.16839276640216      0.14759210893402
  C   3.70687562443020     -1.39157464396419      0.07541566015032
  N   2.96440673276290     -2.57137934427508     -0.02488469061319
  C   3.59474275808238     -3.68410489137709     -0.13007891867296
  N   4.94120072514067     -3.81505247713067     -0.13439645153136
  C   5.74302659202597     -2.69543539312536      0.00667018995327
  O   7.07607111347488     -2.96071691861836     -0.15387209323121
  C   7.94310441896032     -2.44236144239538      0.76728422852432
  N   9.18440385445091     -2.59330677020598      0.68972698784919
  C   5.16191573519837     -1.43042509734262      0.08163190299741
  N   5.92059986684669     -0.34034576164364      0.16088758661788
  C   5.31252814927147      0.85454377376324      0.24240830712407
  C   6.15585067910701      2.00485670944924      0.33474670262716
  N   6.84975438543500      2.92147102750343      0.40997435054685
  C   3.88252976720002      1.07764049543052      0.24477484038095
  O   3.36107878703992      2.19036095991112      0.31994155445906
  H   3.03875906688941     -4.61212207540887     -0.21856175187213
  H   5.37905732617072     -4.71886121013915     -0.19438729705592
  H   7.45945700481739     -1.90206220059200      1.57508613096090
  H   9.42727160328471     -3.10227901877181     -0.16089629985265
