23
Coordinates from ORCA-job 14586optt
  Br  1.10955710501200     -0.09889331284372     -0.58814212834055
  C   2.99094773950730     -0.23798140926891     -0.38195256732866
  C   3.62084734889188     -1.41043247189979     -0.16831510487390
  N   2.84400684738465     -2.59963644469966      0.07270959325561
  C   3.10091407690902     -3.69199801168801     -0.79460339099749
  N   2.44216753718378     -3.96485398940613     -1.82975450745020
  C   4.36172816577256     -4.45169754619708     -0.42295672640813
  O   5.46434728018742     -3.64085213640125     -0.74499683030214
  C   5.84679298307096     -2.57627801868154      0.11973264570771
  N   6.97241805698235     -2.68789895951181      0.73211382981820
  C   5.04915160990601     -1.38490086530985      0.09031442687502
  C   5.65419164396962     -0.13318013253614      0.34863413604501
  C   4.99538476895318      1.08911524283214      0.10594381529243
  O   5.42654284301164      2.24009048117526      0.21624566227036
  N   3.65798509270648      0.95051683751614     -0.37575150967543
  C   4.50053470538114     -5.72661223224303     -1.14573820163821
  N   4.62073403421347     -6.74503008367557     -1.65499580747123
  H   3.03506566372727     -2.88401229801843      1.03053148552148
  H   1.68342945738856     -3.28634953402192     -1.92331384204442
  H   4.35518149250692     -4.68709575127624      0.65062469656527
  H   7.40944137644655     -3.56915231433844      0.47310249557251
  H   6.69235582596163     -0.09422746464959      0.63949368133358
  H   3.17727434492557      1.81236041514357     -0.57292585172681
