28
Coordinates from ORCA-job 14580optt
  Br  1.15717985322869      0.87218779461253     -0.38156187055044
  C   2.98168652161396      1.53471944807579     -0.53478624705469
  C   3.78639125042728      1.65638628182570      0.63997063853274
  N   3.22174304149964      2.28589987611361      1.79546158973203
  C   2.95456875802538      3.62693135971626      1.84339136842062
  N   2.55248716815992      4.27281343741930      2.87670911881103
  C   3.01827684633969      4.41778779245969      0.53800418846671
  O   4.26220540354631      4.33216435835648     -0.11766405545339
  C   4.23938797155836      4.75410601085257     -1.46479694754705
  C   5.46402735179674      4.24612316788620     -2.22583627216529
  O   5.31858079700499      2.95159586913594     -2.81949262704588
  C   4.88095981160272      2.03093152860203     -1.87219881326941
  C   3.52445614266482      1.78748311188645     -1.78034894020079
  C   5.76130904533691      1.71825461063926     -0.76550347613748
  C   5.15600838998122      1.65370263807796      0.49612082154422
  C   7.16272357833716      1.77689653435785     -0.90416846034421
  C   8.36510155263649      1.86720608690384     -1.02158091896822
  H   3.05994330320462      1.76347130676004      2.64230855573079
  H   2.46460179449278      3.64675980900271      3.67829025784574
  H   2.78386031187809      5.45359186873765      0.80024529642848
  H   2.22657126364851      4.02488659657056     -0.11349880261154
  H   4.23146674072754      5.85323252339222     -1.50517455950133
  H   3.33055865918766      4.38853873397265     -1.95904597236929
  H   6.32532801963911      4.24828307108381     -1.54978527770160
  H   5.66644682265185      4.91996019155703     -3.06018667038722
  H   2.88786524846594      1.95269649311375     -2.64662776245589
  H   5.77627028198051      1.77769320909607      1.38110179701297
  H   9.41999407036294      1.91569628979196     -1.13034595876159
