26
Coordinates from ORCA-job 14589optt
  Br  0.74070502801485      0.54644767536524      2.23008463446286
  C   1.97073888579732      1.17154725561459      0.19324630854300
  C   3.22097428335376      1.64043644780654      0.56749208974733
  N   3.24973329952785      2.76304962988535      1.42387823024760
  C   2.16997769597508      3.60941041690225      1.39291754181816
  N   1.90896726464808      4.41430481996209      2.34377472201515
  C   1.40108879445592      3.59828034225705      0.06774839833229
  O   1.94824931077723      4.01706663590440     -0.92598726840901
  C   -0.07947342739001      3.22465141980317      0.02809519383668
  N   -0.43601236053261      2.47890387700920     -1.16967071894353
  C   -0.62336223230638      1.03206482668269     -1.09092727470662
  C   0.53494914168810      0.13006102107374     -1.54342027479843
  O   0.35856667320026     -0.69625928278966     -2.41418980550488
  C   1.85517287759294      0.34828783191942     -0.90793788488867
  C   3.03989412109176     -0.16460878766759     -1.44946007201425
  N   4.24839845599886      0.15162703865682     -1.00227433163820
  C   4.33028683157854      1.08755579552704     -0.04477440044300
  H   3.76338645376963      2.74227369414816      2.29224250582089
  H   1.10934789239472      4.99750829836900      2.11214363544172
  H   -0.35371008289504      2.66777366707309      0.92101509940373
  H   -0.62861201270546      4.17695466516646      0.03601107809785
  H   0.15691729116189      2.75856416856295     -1.94176709973574
  H   -1.47159308355454      0.73927530807099     -1.71377996324814
  H   -0.84961811180651      0.76707417465377     -0.05517318018705
  H   2.98411390107006     -0.84196923924572     -2.29610223750642
  H   5.32891310909364      1.42171829928888      0.22481507425666
