21
Coordinates from ORCA-job 14596optt
  Br  1.05180566394576     -0.19029166928672      0.43283399616924
  C   2.93829009491983     -0.11984447700154      0.24163411463371
  C   3.64071702774952     -1.26828326747380      0.13762482236983
  N   3.01514687649253     -2.51135280984321      0.17514766898476
  C   3.57679271615621     -3.72317394628436     -0.13089937832527
  N   2.96771343763092     -4.79940653943395     -0.41703203334071
  C   5.08262837400245     -3.73208336833205      0.01674167436843
  O   5.71465780942751     -4.74810540928847     -0.01200437551845
  C   5.75838966998046     -2.39805874380604      0.29188750734487
  N   6.92533947326461     -2.35556357329318      0.76783705513714
  N   5.01414109484876     -1.25444747684061     -0.02453504149104
  C   5.72676808784553     -0.01187851733313     -0.38617571052763
  O   6.84914330160310     -0.11199941934121     -0.82832619318939
  C   4.99364545090357      1.23088227562816     -0.17830916125076
  O   5.55255836019661      2.33065135340440     -0.35391895677235
  C   3.55761895597909      1.19341827789010      0.18552188114585
  N   2.86923734970092      2.26090316775548      0.37970109616521
  H   2.00631534587903     -2.45933343862271      0.22202059412547
  H   1.95987241425134     -4.65132712048022     -0.46974248529023
  H   7.26891009097791     -3.31420186361966      0.84347362974366
  H   3.51430840424427      3.04549656560276      0.25851929551766
