23
Coordinates from ORCA-job 14591optt
  Br  0.95022006964372     -0.04689992733131     -0.09506278079191
  C   2.82407589324521     -0.13035177209812     -0.35560503276236
  C   3.53052971891791     -1.28995996534035     -0.18216224825434
  N   2.93153550234966     -2.52486462404264     -0.06093141593632
  C   3.56442229328060     -3.75831671708156      0.07421661962891
  N   2.92624283821956     -4.86075543855261      0.22923645478402
  C   5.04432549516007     -3.72892735875620     -0.00204805223432
  O   5.73379040734525     -4.76958104880362      0.05321793091855
  C   5.67102890415880     -2.43911567589347     -0.08800807138968
  N   7.06058136448254     -2.50881162327643     -0.03214714758180
  C   7.97595258196274     -1.62456922986549     -0.53013410501986
  N   9.24069631139555     -1.77831945037204     -0.57853153491571
  C   4.94122072641171     -1.26620206737111     -0.10997459243758
  O   5.61697027500224     -0.08519257459475      0.19274663523616
  C   5.17050864879627      1.16074926102259     -0.05676838295414
  N   5.86638318316026      2.18348399178358      0.18959454547971
  S   3.59955536167872      1.35757116823061     -0.83849202914772
  H   1.92454114744771     -2.53910292900601     -0.12098784296763
  H   1.92083308034254     -4.69335402588585      0.26098366054849
  H   7.35652596894995     -3.46736510768911      0.13748334724334
  H   7.54855120635779     -0.70357758516818     -0.91427748463859
  H   9.51034174796372     -2.68012056690092     -0.18234600248573
  H   6.78216727372738      1.90358326699303      0.54099752967850
