18
Coordinates from ORCA-job 145optt
  C   -2.45070080093424     -0.04225202998515     -0.09098042916863
  C   -1.26930075142860      0.77602144953829      0.02820704502068
  C   -0.05514212072795     -0.01870889497979      0.09220925517635
  C   -2.46785640124038     -1.43518096797728     -0.14321782586960
  C   -1.25369430508674     -2.22990938502928     -0.07925714484923
  C   -0.07229555494169     -1.41163933629666      0.03996036342269
  O   -1.28885806495259      2.02309725880249      0.07152109599481
  O   -1.23414182794145     -3.47698637076492     -0.12255818785358
  S   -4.04588522851076      0.61189978849433     -0.19248942005271
  C   -4.73057256969844     -0.96909153984202     -0.30513242410322
  C   -3.79352500357228     -1.94939115263188     -0.26640424769057
  C   1.27052234080028      0.49550124058672      0.21543081358458
  C   2.20757273235330     -0.48479787326423      0.25414226514184
  S   1.52288323421071     -2.06578771283975      0.14154191426423
  H   -5.79949083961588     -1.08472115385093     -0.39481326985018
  H   -4.00361853242687     -3.00798943725827     -0.32311342864624
  H   1.48061241924137      1.55410005937067      0.27214131816065
  H   3.27649127447220     -0.36916394207234      0.34381230731814
