21
Coordinates from ORCA-job 14600optt
  Br  0.94476457674235      0.08367735714416      0.23740956475295
  C   2.82403395756264      0.14963149775262      0.13784173056090
  C   3.48819865709903      1.36698067417328      0.11551364488180
  N   2.97884075078040      2.64232759448517      0.14794077087118
  C   4.02758192626838      3.41976873590361      0.11106917939265
  N   5.22655341017748      2.75215790406867      0.05426277550465
  C   6.57555558990946      3.28895576259318     -0.00252145642825
  O   7.50483786091809      2.47138393695757     -0.13662321544312
  C   6.73997258173995      4.70177673040170      0.10447941990380
  O   5.84903314000502      5.57114740026928      0.24725169272974
  C   4.90993448267665      1.40672602947504      0.05280608429401
  C   5.69502712309083      0.26359570448813      0.01063349771228
  C   4.99351877117373     -0.93157919274124      0.03156034728593
  C   3.57877935751896     -1.01896540340096      0.09258223699231
  N   3.07390796521339     -2.30800615459180      0.10251784477489
  C   4.02347017592597     -3.16645663938428      0.05140336140607
  S   5.64456592470522     -2.54198467644011     -0.01203056903676
  H   4.02396173991274      4.49664602208987      0.12500720406555
  H   7.80420633021337      4.98095623260243      0.04858528133667
  H   6.76981372625505      0.32864889593630     -0.03933374732971
  H   3.85644195211128     -4.23538841178262      0.04664435177246
