26
Coordinates from ORCA-job 14601optt
  Br  0.93513065586553      0.37044555934078      0.36798696054433
  C   2.83085465948881      0.11067240477249      0.27358237369078
  C   3.31754453655059     -1.20479083314559     -0.00130925289025
  N   2.48090994073376     -2.12055803838379     -0.69332858752265
  C   2.36042061586932     -3.42632010768730     -0.32728457740446
  N   1.76088471434000     -4.36286078534266     -0.96110627545687
  C   3.01726833372487     -3.71936648657864      1.01376525046888
  O   4.27930839079449     -4.37280955227148      0.93550043055579
  C   5.40843630876271     -3.76287285610991      0.52827427425831
  O   6.46363972336691     -4.22322180285512      0.86625382324493
  C   5.32758972006566     -2.65058550010796     -0.51527187465197
  C   4.74535740079122     -1.32468852028753     -0.11053363432812
  C   5.56088375162423     -0.27370002386394      0.21701763062909
  C   5.04452361741629      0.98689484629969      0.57300558032308
  C   3.65822400420599      1.15956539913772      0.58882161674511
  C   3.09512092958307     -2.46589048028124      1.88155319233195
  O   4.03852697445362     -2.27887217512426      2.64668703646462
  H   1.96013142159832     -1.80450094510989     -1.50140021301743
  H   1.39356107367400     -4.01956341647321     -1.84937412508578
  H   2.38547229619017     -4.46968838841162      1.49549150821437
  H   4.76252331199697     -3.06418089115650     -1.35756113334554
  H   6.35659293846373     -2.50616056468592     -0.83578037973921
  H   6.63446971550266     -0.42616101718136      0.19238130693241
  H   5.70164514362780      1.80969702747550      0.81586807632739
  H   3.22516164480876      2.11624581821112      0.85118285570783
  H   2.11481817650021     -1.97172867017921      2.00957813700338
