25
Coordinates from ORCA-job 14611optt
  Br  1.58571794534695     -2.22600253100348     -1.04994073360445
  C   3.37111995011305     -1.64700720361739     -0.63875350238926
  C   4.21734852469843     -1.28762619284333     -1.69556689846242
  N   5.39688908942085     -0.63012363905818     -1.26858371286005
  C   6.06518901706311     -0.92354094728463     -0.06872469404670
  N   7.33196585077841     -0.70834880325544      0.11414442825416
  C   5.19480291685270     -1.49175494316277      0.91659924434869
  O   5.78841277116191     -2.08569186814586      2.02594351753327
  C   5.81334423380279     -3.48244862961280      1.93783632917457
  O   6.28830204842799     -3.92118908948665      0.67102579850025
  C   5.33061012795537     -4.26323167377117     -0.24072720862823
  O   4.42284097599476     -5.01216172976006     -0.00949854289060
  N   5.60301251452010     -3.66015427492190     -1.44378346539053
  C   4.62630079604608     -3.53612973645646     -2.47108018330196
  N   4.04567706222191     -4.50316335907236     -3.04312744587266
  N   4.39361548019240     -2.20291433345301     -2.81487479455845
  C   3.83521147667428     -1.70359562538000      0.65801777148260
  H   5.97571662687788     -0.24438719521391     -1.99915721799978
  H   7.74758367339370     -0.33567262822447     -0.73817017925783
  H   4.82211957020828     -3.91675910545428      2.09357647463020
  H   6.52249245168861     -3.83114049794046      2.68494912652029
  H   6.25144765462359     -2.88791412310351     -1.35836280831596
  H   4.39878447668553     -5.38421863042967     -2.68010494012625
  H   3.68919656464273     -2.14979637063969     -3.53795564430853
  H   3.18529820060848     -2.02102686870847      1.46631928156966
