23
Coordinates from ORCA-job 14616optt
  Br  1.38943879609729      0.19667782545626      0.83633538492725
  C   3.01437384379360     -0.10532829895474     -0.07003958807159
  C   3.66053665964498     -1.27855757267759     -0.05647991928980
  N   3.29637295265674     -2.53172040957070      0.36601208002525
  C   4.30003562539639     -3.48296006449911     -0.03394478146464
  N   4.18839914614279     -4.77948495627663      0.08373422312016
  C   5.40076558956540     -2.73671539980855     -0.56116534646779
  O   6.50076311970809     -3.08203591614005     -1.01065173425990
  N   4.96984520992374     -1.34433246170995     -0.50789412008018
  C   5.69640779403790     -0.15321711174932     -0.41133491778478
  C   5.00583373153303      0.99438456182520     -0.39281501095882
  O   3.63640567890679      1.00875664330133     -0.62528298401749
  C   7.14790818683886     -0.15580068219675     -0.18291787547615
  N   7.87602599587906      0.89551167808400     -0.54396071715347
  N   9.10925425722477      0.62108758097740     -0.11296610050416
  C   9.19654233083648     -0.58236875133950      0.50056030033653
  C   7.93956004434332     -1.12298452285637      0.47988972139126
  H   2.32468792193029     -2.79227889453242      0.30803801882118
  H   3.29731861342105     -5.00820796040740      0.51995968758061
  H   5.45323443657175      1.95962692319154     -0.21772699117233
  H   9.84975334628744      1.26860877458899     -0.31067834953621
  H   10.13276809367878     -0.95802094557168      0.87755337123565
  H   7.62476862558123     -2.09064003913391      0.82477564879941
