22
Coordinates from ORCA-job 14617optt
  Br  1.47193670660621     -0.01592120518434     -0.66623771969771
  C   3.31075210426762     -0.10122556865556     -0.25595001270048
  C   3.94927523176979     -1.26985906968316     -0.22290819066405
  N   3.46804663613933     -2.56445491503437     -0.39677576693178
  C   4.39843232597960     -3.47541866275284      0.07065499063425
  N   4.31194309891909     -4.73084160015301      0.21109135045189
  C   5.63169167440201     -2.65404304058001      0.44532692626285
  O   6.63930781269398     -3.08069913484136      0.94304308717772
  N   5.30198860070415     -1.36338707266874      0.10946753388198
  C   5.99201231194083     -0.12055390898471      0.23903275466314
  C   5.19058354777103      0.99427622359921      0.57631409271731
  O   3.86305350383449      1.07594990746443      0.06972330681203
  C   7.35119338424761      0.03038196805088     -0.07490327716695
  O   8.02839604722438      1.04688618900646      0.01912846473670
  O   7.91794277254389     -1.16296996407855     -0.56267677455089
  C   9.24258164210083     -1.19638389040853     -0.78353380337244
  N   9.85510113087183     -2.23334070208602     -1.16188426351480
  H   2.47762449838798     -2.74617821588750     -0.40285619406778
  H   3.39802351195482     -5.07338979238539     -0.08348872967020
  H   5.64013002025687      1.97356406151847      0.59395727984759
  H   9.74817752613015     -0.25080448838818     -0.61735373050496
  H   9.19380591125339     -3.00858711786715     -1.23417132434340
