22
Coordinates from ORCA-job 14614optt
  Br  1.23460249744005     -1.70891426759167      1.05520998062092
  C   2.97672335579257     -1.20299600553029      0.38890020196548
  C   4.03720331898291     -1.16882343383771      1.26353212150085
  N   5.19551951371669     -0.53643414007615      0.73213446920198
  C   5.53074006935243     -0.76735772389828     -0.61099959678899
  N   6.71678435114454     -0.72764744120238     -1.11562344028033
  C   4.36653191199202     -1.11862804459593     -1.36096662469629
  O   4.55918110283085     -1.67283837159055     -2.61986792843927
  C   5.15462938819528     -2.86950756123536     -2.75113134798878
  O   5.49110008862730     -3.28032066714765     -3.81534914206986
  O   5.37533753978428     -3.63836698056721     -1.64366660138985
  C   4.77501907430497     -3.43636197363304     -0.42336766966658
  C   5.48034968633993     -3.55140595496093      0.69974257627414
  C   4.96546158263282     -3.29584239460061      2.08062094070651
  O   5.25156668032938     -4.02016038933402      3.01632764073064
  N   4.24560644297234     -2.13461264095840      2.27939583742822
  N   3.10136316688611     -1.07630835688453     -0.91376502575274
  H   5.97965076173791     -0.47403254171953      1.36312949174817
  H   7.41040885520145     -0.54658746174102     -0.39371250163568
  H   3.70221784230134     -3.30444840947430     -0.44909320453613
  H   6.53347289471122     -3.79694774195838      0.64479873672853
  H   3.96752987472351     -1.97545749746201      3.23675108633907
