24
Coordinates from ORCA-job 14615optt
  Br  0.95957162743667     -1.05830906547972      0.33913745225195
  C   2.87080494479453     -0.89899978735895      0.23974323008089
  C   3.48482109962987     -0.83471662968125     -1.01464592205485
  N   4.85431241905510     -0.48300828807871     -0.94642885026663
  C   5.71955324086067     -0.97816298788439      0.03581097051395
  N   7.00702390214634     -1.05925892007566     -0.09499386895479
  C   5.00030093269913     -1.42393085454044      1.18104901663356
  O   5.64067951343605     -2.28547605885698      2.07191708498449
  C   6.09521411783635     -3.47430864371062      1.65363513574124
  O   6.75208340259870     -4.17049834572520      2.36096794099123
  O   5.87454555499494     -3.83899129038373      0.35391309037757
  C   4.66139045438036     -3.71200051017881     -0.28851125028743
  N   3.59793463496554     -4.05858063126814      0.29024106402858
  N   4.88561779451582     -3.30395639017157     -1.59164670196110
  C   3.80679301053604     -2.83219585918315     -2.40509143220939
  C   3.08392717278416     -1.73565417098065     -2.09275092826388
  C   3.63278581164001     -1.18943562657748      1.35206054465618
  H   5.29432370085292     -0.28181011421684     -1.83157962915950
  H   7.29356199924951     -0.73203057282649     -1.01606546513176
  H   2.79248261334928     -3.87917016943778     -0.30428648107966
  H   5.79855330268435     -2.88131842742405     -1.70104459552428
  H   3.54952725395346     -3.45138846954364     -3.25716696285595
  H   2.16037175717306     -1.55979884013740     -2.63629539427888
  H   3.16781973842705     -1.42599934627828      2.30003195176847
