19
Coordinates from ORCA-job 14610optt
  Br  2.53688044604049     -1.33187400376694      2.09131443700228
  C   3.28697224855612     -0.39061660055641      0.64573109800600
  C   2.87856835310001      0.84533928037927      0.36502905912022
  N   1.94565672127692      1.66651852984227      0.99448666728631
  C   0.78165700366072      1.69279962797073      0.49158658647523
  N   0.17426661491512      2.91574993382225      0.44035838254592
  C   1.00539411537594      4.02981354323794      0.25639277584997
  O   0.56078157678960      5.13874724272435      0.19633090450024
  C   2.53418801191931      3.73542229747245      0.09698706489409
  O   3.28593875028150      4.46431696721430      0.67741697996800
  C   3.07508475891753      2.81768650372406     -1.03218871698384
  O   3.30391786831878      3.36568789506379     -2.09155822251044
  N   3.39689572248738      1.50776041363582     -0.74854340815777
  N   4.21372212362849      0.82466216946982     -1.69003437389900
  N   4.60482786286064     -0.37678824552928     -1.36771241468348
  C   4.27627731995185     -1.05433083253162     -0.23856573851930
  O   4.71624606232150     -2.17327724162856      0.03256483197707
  H   0.29769897301501      0.85458192000362     -0.01570236292865
  H   -0.81097453341693      3.03680059945210      0.25910645005717
