22
Coordinates from ORCA-job 14618optt
  Br  1.35625959293964      0.16309811646227      0.05053203044815
  C   3.25541625000174      0.04471302227390      0.13484961959124
  C   3.84194617901898     -1.17257023246299      0.00232934853477
  N   3.32074762441192     -2.42012196102920     -0.17789104528336
  C   4.31657284371365     -3.38839150738192     -0.27299210245268
  N   4.18450457526572     -4.65719050688590     -0.44223128343553
  C   5.59708771590252     -2.65775805279377     -0.13393674818165
  O   6.72824661323259     -3.10429668473951     -0.15813709753543
  N   5.21771127983979     -1.29677893193753      0.03778602521087
  C   6.04903475218887     -0.15713325127776      0.22820222135707
  O   7.26336161716702     -0.22444203031440      0.26147778163380
  C   5.26684982852412      1.05613623220267      0.37043635675157
  O   6.02148474407541      2.17586310896266      0.56981664673889
  C   5.27535177833319      3.35736299416899      0.74107319804039
  C   6.19200760725175      4.47846245121153      0.94202143717909
  C   6.90306716420011      5.42684794507339      1.10900456364790
  N   3.96318460994821      1.15892350562358      0.32304156907243
  H   2.33205472610528     -2.58826174346495     -0.24438108677175
  H   3.19983899635891     -4.90964255054393     -0.50675455353364
  H   4.60291939452212      3.26635580317501      1.59945465963292
  H   4.64330254134620      3.54565600083562     -0.13161169407866
  H   7.55004956565215      6.25716827284224      1.25491015343362
