23
Coordinates from ORCA-job 14627optt
  Br  1.86894150604990     -2.04887461606540      1.28120698093680
  C   2.87126417899869     -0.74487796645017      0.34448604984367
  C   2.56332741397405      0.63981564336388      0.46996689222901
  N   1.48759163168829      1.08009773670273      1.24764191187853
  C   0.63138531839657      2.01285461703951      0.72268505275360
  N   0.62018349022302      2.21968691372831     -0.51622507430011
  C   0.36520707258809      3.43686530184422     -1.13156353017089
  O   -0.60514371103928      3.64453813838105     -1.82966144579583
  N   1.35124609599389      4.37447021223485     -0.89674934511352
  C   2.53105028400099      4.10408425337443     -0.39037249591495
  C   3.40457138036477      3.02271423610382     -0.07976964057709
  C   4.68998050232400      3.48565424336056      0.39222091999258
  O   5.67351961139975      2.81143511347487      0.67766105756598
  C   3.35133307151987      1.54379740068291     -0.20036803763062
  N   4.33492436616589      1.01261846396945     -1.01681881316973
  N   4.76791052149770     -0.28592561045932     -1.02118930309616
  C   4.00789992181434     -1.12108557402731     -0.36082504544035
  H   1.28989871361074      0.62626162569623      2.12288602065615
  H   0.04447378863510      2.57003516189098      1.45938001456586
  H   3.04866245299818      5.03670774810892     -0.15500306292843
  H   4.75617241279772      4.58587769183993      0.50015305013419
  H   5.05287732951315      1.65681736922879     -1.30676116586591
  H   4.32272264648449     -2.15756810402328     -0.38498099055277
