19
Coordinates from ORCA-job 14621optt
  Br  1.53316566270592     -1.58779012475668      0.83779026513671
  C   2.99516722292277     -0.52646829757871      0.28635221196253
  C   2.88428704279247      0.77981185207276     -0.03379935147588
  N   1.62618235525980      1.41955584110376      0.02889513527404
  C   1.51697224198769      2.68959192753624      0.60398892291238
  N   2.18129733876293      3.71073566655397      0.28956099007223
  C   2.99659018717067      3.61739078905740     -0.88956141593915
  O   2.73913371496999      4.36077693804139     -1.80374446736229
  N   4.08025628867705      2.78302027059270     -0.87708929810178
  C   4.07566278129560      1.55403405004895     -0.45075195163661
  C   5.28128081606207      0.79057981518835     -0.40329787868653
  N   6.52513433020268      1.12636980544709     -0.66285400960459
  C   7.25392615244394     -0.06690862076364     -0.47451793375831
  O   8.45179480014632     -0.17265787945693     -0.60929649205358
  N   6.40989628691669     -1.17251378486522     -0.09492854884442
  C   5.25958637826716     -0.62089314998646     -0.06140365127950
  O   4.11668771538829     -1.27615227934149      0.24638662252983
  H   0.88804653694643      0.79185131018343      0.30985075219768
  H   0.75693214708147      2.76766587092308      1.38242009865724
