23
Coordinates from ORCA-job 14626optt
  Br  1.60962978877663     -2.41558205303678      0.52524378989681
  C   2.82256857054296     -0.97301887480389      0.43425676068709
  C   2.47878332939580      0.32449493159057      0.63489641010870
  N   1.13362523066108      0.70832300742472      0.98033991451219
  C   0.65792656917486      1.71474858031417      0.18163331181514
  N   0.05443923523543      2.74990997688671      0.61437937122471
  C   0.11930846426176      3.94332780463138     -0.08255268529550
  O   -0.82156170177002      4.67299718373383     -0.30901468588138
  N   1.42570777039922      4.38287031440690     -0.40382077076775
  C   2.56722559385313      3.55643629046487     -0.53942012886136
  C   2.90624276197790      2.70645294520878      0.44654608421630
  C   3.43170922295672      1.35055079105319      0.30469124090232
  C   4.59280170968218      0.92754315639062     -0.35937488735006
  Br  5.84153369297044      2.21624436469633     -0.97353371851647
  C   4.94393473586193     -0.44114864345313     -0.53459935785623
  N   5.93613812931986     -1.00846595582228     -1.10310791344458
  O   4.06560927676763     -1.36094993862283      0.07577870188853
  H   0.96939950265703      0.87972319390995      1.96598259676704
  H   0.90962427703337      1.55625332189207     -0.86835947233770
  H   1.38183798722671      5.23706730512969     -0.93870705921037
  H   2.98123744737065      3.46499003362444     -1.53915019259480
  H   2.40553126724427      2.89398447024154      1.38997060848854
  H   6.54874713840042     -0.29775220586090     -1.49007791839117
