22
Coordinates from ORCA-job 14629optt
  Br  1.06229685241698     -0.01298243952076     -0.89094067120175
  C   2.86085021307586     -0.04059588078156     -0.28040983979772
  C   3.56652983242215     -1.26176719685442     -0.15284466023082
  N   2.91995016241388     -2.52587144209123      0.01817380799450
  C   1.78083823842678     -2.60858096997732      0.85678997511792
  N   1.01567170794782     -3.58763103617212      1.06341654913746
  C   3.51412001501151     -3.66809717625291     -0.47987573399874
  O   2.96119056143254     -4.74762106987113     -0.58881699282710
  N   4.83898790320180     -3.50871326351146     -0.85043789460495
  C   5.66014265248268     -2.54721937832072     -0.11915478435063
  C   7.00284391300432     -2.50752554715568     -0.71445711160582
  N   8.06430131100118     -2.52517039759267     -1.14507032502552
  C   4.96211045576985     -1.21610828475245     -0.15373729998460
  C   5.60985569044091     -0.02185303999251     -0.17907766694639
  O   4.92847469582448      1.15903070432566     -0.09392353848168
  C   3.53325272525792      1.20793435088385     -0.30071109982800
  O   3.07061731888898      2.31586451936591     -0.46106115633849
  H   1.62861988796381     -1.66692067908042      1.37689075213603
  H   1.28072107163407     -4.38374562289075      0.48752878842187
  H   5.26264792071333     -4.40331975272244     -1.05099672401425
  H   5.80024172971860     -2.87212015989315      0.92220984674329
  H   6.67873514095048      0.10101376285831     -0.26849422031461
