25
Coordinates from ORCA-job 14635optt
  Br  0.71289629464108     -0.05987126303071     -1.00024387072071
  C   2.94234005625087      0.03573856738490      0.13387702593203
  C   3.65100172834136      1.19772059932650      0.35529631444853
  N   2.92242086799100      2.37035227901272      0.57623693858444
  C   3.26784566197932      3.52446684073216      0.20939486159818
  N   2.26259495866345      4.52139539726300      0.36420324167913
  C   2.23769285862023      5.80531608399720     -0.04639222473668
  O   3.13569635781360      6.41482431316750     -0.59774808482413
  N   4.42947444310960      3.99309006869376     -0.38220352667580
  C   5.70405085623464      3.46165435247907     -0.24296850849630
  N   6.72261941719624      3.89606010522217     -0.86702812177257
  C   5.84694688843697      2.34742338254116      0.75577987239699
  C   5.06659987135099      1.11733911066252      0.36970014701836
  C   5.71812785307530     -0.05642628801618      0.09981466712329
  C   4.99778434154343     -1.26197050654842     -0.19466606079652
  O   5.47155385539686     -2.36624416345413     -0.44912334614353
  N   3.60814432721230     -1.09166083516901     -0.14033846963692
  H   1.40561583577431      4.11260824743085      0.71021849176920
  H   1.27125929410694      6.28279016103601      0.17451390448882
  H   4.35679542446708      4.91648968518197     -0.79680093695123
  H   6.46893272275562      4.63566145145637     -1.52179093298818
  H   5.47602123628423      2.70762168512723      1.72153723539049
  H   6.90671212963612      2.12396714189822      0.83987290742062
  H   6.79725720640737     -0.11884742038352      0.11780877506085
  H   3.06561551271090     -1.92049899601144     -0.35495029916838
