23
Coordinates from ORCA-job 14633optt
  Br  0.92994303013954      0.59755626981086      2.21913650268864
  C   2.40494221623785      0.72427213014154      1.03720845500726
  C   3.35797609830974      1.76012470323078      1.22946129164794
  N   2.88301142821250      3.00285468493019      1.70168532067698
  C   1.74765583982471      3.61174365284186      1.21236696576432
  N   0.98290927088435      3.31346515487942      0.25021026128164
  C   1.18485847191911      2.33375302512770     -0.75067942047373
  O   2.09376056630691      2.45835408235473     -1.55403344841803
  N   0.16584966840332      1.41446889880806     -0.85750510215151
  C   0.32336293798339      0.12617910132193     -0.91464800198596
  N   1.38269884510242     -0.66423284832224     -0.66279416411596
  C   2.43871576030668     -0.06118145903279     -0.09485390814786
  N   3.69907722215104     -0.17687953636825     -0.72916790578796
  C   3.85251153868786     -0.99880369571646     -1.82551914383297
  O   4.91417311642690     -1.14966367850851     -2.39890964901428
  C   4.78075202318015      0.60388248557480     -0.30909182993078
  C   4.58779630220054      1.62409304236762      0.56763308484479
  H   3.29329346424635      3.42516945933263      2.51768946724595
  H   1.48794818112065      4.48974755126663      1.80752337066832
  H   -0.56174240528640     -0.43219024721564     -1.22000646087317
  H   2.92451950654989     -1.50378547460185     -2.09754754415461
  H   5.69583247267377      0.41139216866591     -0.84323747120407
  H   5.37015444441867      2.35868052911103      0.71307933026506
