22
Coordinates from ORCA-job 14630optt
  Br  1.13013863065044     -0.64442489006215     -1.32686273162012
  C   2.27249936875290      0.29005707198861     -0.11754012535140
  C   3.02613840621685      1.32179721883103     -0.51954696961075
  N   2.82445033517103      1.93556323780160     -1.78027452716233
  C   2.20145739353233      3.15996999002615     -1.88995992298031
  N   2.23092682107390      3.93847134107526     -2.89330445631292
  C   1.34020059148873      3.63557805115850     -0.70531355771562
  O   1.31362249899180      4.79146218156646     -0.38428953208264
  N   0.45976040318517      2.68079949931535     -0.19702172326224
  C   0.49148709738275      2.19789596264923      0.96649989592978
  C   1.41696718517253      2.56225607005852      2.09782358903374
  N   1.47015306311380      3.72656171948430      2.57695699791897
  O   1.99597736447976      1.53263610863621      2.76272176571597
  C   2.82731410386068      0.58589852916645      2.15421947002927
  O   2.07571404230215     -0.13439717381821      1.14672603059134
  C   4.18307230492610      0.90923995387544      1.88420166338611
  S   4.17094373107263      2.11075768761013      0.58963093990294
  H   3.51748723073849      1.75559277212484     -2.49410354353806
  H   2.81594455486990      3.55329685493242     -3.63575522514199
  H   -0.25436513250856      1.44389506750148      1.22264839704950
  H   0.94278345705920      4.36915179011387      1.98830100501087
  H   4.75432654846738      0.03594095596449      1.57624256020989
