21
Coordinates from ORCA-job 14638optt
  Br  4.94444545755995      0.83400911883763      4.48451710667622
  C   4.31588451819876      0.88598358350527      2.67201232637943
  C   4.08540502031329      2.19093370459811      2.12310491918962
  N   4.95394789785976      3.26557327421231      2.55456486946172
  C   6.28853321835050      3.04038158958715      2.37921714734594
  N   6.67443367684900      2.14952291000830      1.55122852879517
  C   8.00004640516885      1.78529317234649      1.39533760224500
  O   8.97196311616123      2.50938297641857      1.50374723415588
  N   8.14843106709453      0.45640258944852      0.99290357375647
  C   7.10345172136973     -0.50174760932792      0.76196781339511
  O   7.10666071005453     -1.12870107810122     -0.27390966913386
  C   6.16426621842592     -0.55050340681473      1.87311580023157
  C   4.90633755518123     -0.03232428713796      1.72925982205538
  S   4.01157653989819     -0.13566561448181      0.22915160942599
  N   3.20735094265705      1.31300395776241      0.04741385587314
  C   3.48381388921252      2.30013059779108      0.86244892083542
  H   4.70898413960998      3.79984517858545      3.37377881068281
  H   6.96458747092378      3.63024851377108      3.00522855312937
  H   9.00073201641622      0.29019718360312      0.47673844271980
  H   6.62362074719251     -0.37567198424578      2.83767705498325
  H   3.21852767150236      3.29870562963389      0.51349567779655
