20
Coordinates from ORCA-job 14649optt
  Br  1.06291361743742      1.12368625636555     -0.98706806047894
  C   2.84327815154065      0.69040265390231     -0.50607998557818
  C   3.25766320810972     -0.58791847311928     -0.43938168275106
  N   2.37039684439372     -1.67810986203160     -0.72308899645973
  C   2.18387020490640     -2.54280548867698      0.36546240049481
  N   1.66042999909630     -2.26295487977659      1.47620595434522
  C   2.81112431186864     -3.90461928249917      0.17084934330849
  O   2.22982633023625     -4.95079838253556      0.20512808554283
  S   4.54907943260619     -3.85964481985589     -0.22175686276532
  C   5.18227053347409     -2.20983889988733      0.08574976844034
  N   6.45031397812976     -2.28121705589435      0.44265288716081
  S   7.06766353685090     -0.73705160211535      0.61958150459899
  C   5.56904460557969      0.06617342618136      0.23649414593866
  C   4.60291938361217     -0.93163829564561     -0.06464039538831
  C   5.41919142143226      1.46043721075208      0.23843050713997
  N   6.26270147356440      2.40663721418571      0.50278867482886
  S   3.79942183132765      2.12290158278035     -0.20416657850202
  H   2.69618908917268     -2.17959118228507     -1.54175540389982
  H   1.34815964017375     -1.28832150214366      1.47753767773781
  H   7.16854240648732      2.01227138229907      0.75305701628659
