22
Coordinates from ORCA-job 14640optt
  Br  0.86217718775638     -0.04226257836761      0.52534445021543
  C   2.71000734397315     -0.05678100840211      0.09865111942457
  C   3.41408497847017      1.17246693226143      0.16099730413213
  N   2.72279169618447      2.32802924193938      0.34119221618330
  C   3.14300123677670      3.51936713796325      0.15537286732758
  N   4.41062253779571      3.93601623182328     -0.31307645128807
  C   5.61273098367609      3.36090842622535     -0.05804744852000
  O   6.67724046851536      3.79424629188640     -0.41957934925773
  O   5.51187723135265      2.24651581792593      0.71825787201690
  C   4.85433038175753      1.14920176511800      0.13388459733372
  C   5.63093038413797      0.11657073107087     -0.24339252280975
  C   7.12138398797868      0.10817380826730     -0.03730875327383
  C   7.88012538776227     -0.22709423647707     -1.24832228208079
  N   8.49475355451349     -0.49678915181950     -2.17801621406412
  S   4.92659360110981     -1.34929160958577     -0.88300239306300
  C   3.22949379380476     -1.32030375438500     -0.26354649913111
  N   2.57672953429463     -2.43476788402044     -0.28360607294079
  H   2.45861206170996      4.34837561580536      0.30003328761088
  H   4.46752280099553      4.81481112786752     -0.80378658133423
  H   7.39668136218082     -0.63068963323104      0.72269213827168
  H   7.44658194194349      1.09195090334830      0.30091841223808
  H   3.17672754331032     -3.20265417521385     -0.57265969699085
