20
Coordinates from ORCA-job 14641optt
  Br  1.18702668564170     -0.21369091888871     -0.87699930385938
  C   2.87368189173526     -0.04411190547186      0.12956145526019
  C   3.51621683968272      1.21187585310706      0.15419312287757
  N   2.74053834790795      2.36051007604558      0.23591552068405
  C   3.16193786796597      3.48508953127530     -0.14908146913028
  N   4.42777092645289      3.81787506822106     -0.67839765631026
  C   5.65786087483024      3.43955491133855     -0.17935755349576
  O   6.63908119115469      4.11803455747604     -0.28740472283106
  O   5.68230192452409      2.28343983320476      0.50788461604651
  C   4.90359836050957      1.19004214333034      0.13878195106823
  C   5.61531553508165      0.01477546017913     -0.06391823735087
  O   7.00610019682596      0.02609853167962     -0.11321700790168
  C   7.58075354901869      0.70154883934689     -1.11108113461065
  O   7.02832048902936      1.30243180909188     -1.98328103540191
  C   4.97327526367211     -1.23961168658371     -0.16785166319542
  O   5.46877372919526     -2.32355423740369     -0.37111356347859
  O   3.59109311095545     -1.19350496037832      0.05660481088547
  H   2.48663710036718      4.33667254404283     -0.12960936973071
  H   4.48681471497041      4.72696546012452     -1.11125730256639
  H   8.66990140047879      0.62555909026269     -1.00437145695908
