20
Coordinates from ORCA-job 14647optt
  Br  1.16051569796989     -0.04948585910970      0.06962860264944
  C   3.04528717210012     -0.13652996007502      0.06795733339664
  C   3.67769375735747     -1.33768675806201      0.06755019387538
  N   3.00215842093634     -2.56032853556571      0.06797958885500
  C   3.74539082188113     -3.58970375090162      0.06759367675996
  N   3.15398951912276     -4.84769858930792      0.06795373573687
  C   3.79412370888702     -6.05579428979222      0.06776596490015
  O   3.20724047821891     -7.11130423034765      0.06803704138449
  O   5.06841702620428     -3.66958996144021      0.06691174610114
  N   5.85274638905516     -2.46745882008852      0.06645467099831
  C   5.11432176336692     -1.35726326607988      0.06673014708269
  C   5.77019918650249     -0.09084697678951      0.06639246656002
  N   5.15040983044823      1.07150077743717      0.06655462390082
  C   3.77549563518245      1.14176250405131      0.06715548546403
  O   3.19051537976476      2.22153267337226      0.06721115763836
  C   7.20790812898768     -0.07189204279795      0.06612745154314
  C   8.40773555448602     -0.05653339526936      0.06654412020517
  H   2.14304076386777     -4.84316181996564      0.06838785607820
  H   4.88598352989098     -5.96726742450095      0.06726729544764
  H   9.46982723576961     -0.04125027476685      0.06679684142255
