22
Coordinates from ORCA-job 14646opt
  Br  2.31196966309942     -1.95687359793675      1.94332343905776
  C   3.04350688145294     -0.62073245307456      0.78471342106201
  C   2.29811203849035      0.60244023904384      0.66174399098370
  N   1.12347129267035      0.82537183942901      1.23049493017891
  C   0.30542883247428      1.63614711948932      0.52414934226903
  N   -0.20687195851978      2.82840092212773      1.06460469410121
  C   0.01201782495731      4.09144008833402      0.61972289873414
  O   -0.49763083157703      5.06461777360423      1.12357710946045
  O   0.78577484756122      4.28830254751313     -0.49318366507397
  C   1.82077132902137      3.47303679002451     -1.00231100610680
  O   2.60008711127106      2.91478328644204      0.01444371224554
  C   3.01111772769752      1.59761703811424     -0.09043255857106
  C   4.18695000361296      1.30164707465735     -0.73293666581274
  C   4.71555675516367      0.01227797248346     -0.61664391323389
  N   4.14480919407570     -0.91469172769880      0.17759967215826
  C   5.90815279468652     -0.35055960568491     -1.31597469540072
  N   6.86556886876459     -0.60707735039512     -1.90250826543105
  H   0.26056985831520      1.57709662435795     -0.55664845775882
  H   -0.61204345054778      2.80746872089748      1.98934666398737
  H   1.42951902553691      2.69550627923963     -1.65877117179838
  H   2.42665861632512      4.17214836017351     -1.58283195170233
  H   4.72350357546786      2.07263205885851     -1.27147752334866
