22
Coordinates from ORCA-job 14651optt
  Br  2.12611365777211     -1.27759429767373     -2.27123012256912
  C   2.68275104929329     -0.13289291354541     -0.88249185183765
  C   2.79781106854351      1.23708761954959     -1.07086883313611
  N   2.12348169361255      1.93298398034136     -2.16743455942775
  C   1.00333687670213      2.43377390038971     -1.50335731706412
  N   0.80058880711616      3.67009053328684     -1.29851473589398
  C   -0.12663163877262      4.22813388434368     -0.46197229898361
  O   -1.12649875006962      4.80395077760130     -0.78559195394017
  S   0.42010453073481      4.38080323964522      1.29857989766406
  C   0.97135495551774      2.70204558988552      1.74166553221070
  N   0.30081670240245      1.67235362488362      1.46579787413176
  S   2.62520686565061      2.52608850895408      2.50142413253393
  C   3.36267699811939      1.54113002428162      1.25337920377501
  O   3.32966471528075      0.16811951955265      1.41923594165414
  C   2.99086311471728     -0.71412374189780      0.39660657781881
  N   2.96885618138377     -1.96102617588877      0.66003466955938
  C   3.20962406312380      2.05477609616485     -0.02460128506724
  H   2.69190615776520      2.70147413974044     -2.50950601821385
  H   0.36618640631839      1.64238906236904     -1.11147313176167
  H   -0.57707904679488      1.90096474787507      0.99767268838647
  H   3.18731114421571     -2.09181594652698      1.64506818182016
  H   3.13855444736741      3.12828782666800     -0.13242259165913
