22
Coordinates from ORCA-job 14664optt
  Br  1.87303150178672     -0.78014479960647      1.74657412583253
  C   3.25215521400348     -0.65899606970058      0.27452935546500
  C   3.65939079978179      0.61296510678520     -0.10117063837403
  N   5.04955202087503      0.80609221248226     -0.31302316840281
  C   5.88505417412374      0.01472257290994      0.44876858455502
  N   5.55981856618741     -1.14477317877680      0.86110561031438
  N   4.30709710325460     -1.57416594589810      0.37220898268878
  C   5.26029677074864      2.19075107568016     -0.60147527690760
  N   6.40338192352555      2.74997062014783     -0.80892761545256
  N   4.04197631144448      2.79945095244201     -0.61601718723465
  C   3.10884679190548      1.87821365367754     -0.31376360427222
  N   1.76704229347736      2.16174141035750     -0.24547697737621
  C   1.36818736002970      3.35271384084465     -0.44372229520863
  N   0.03731757003785      3.69446942030541     -0.38296248433318
  N   -0.32319098018246      4.97791079984531     -0.58800870635677
  C   0.71979741247795      5.67881999224998     -0.83303094397187
  S   2.25366375517590      4.84390332961911     -0.82949003811433
  H   6.84851830562182      0.42705088041963      0.72384245018693
  H   4.06136438755478     -2.44887659952532      0.80419945408748
  H   7.14067600819751      2.05113674651940     -0.80076275243459
  H   -0.66318426091934      3.01316060896311     -0.14562898266634
  H   0.63920697089189      6.73788337025818     -1.02776789202432
