24
Coordinates from ORCA-job 14668optt
  Br  5.31211978959782      1.73151847796312     -3.53035777536125
  C   5.35541523569016      1.15144522713927     -1.74112961631266
  C   5.96361900081474      1.81602371215378     -0.76220334802896
  N   5.92733523844498      1.10677820448326      0.48252215054196
  C   6.22559894893958     -0.26165284061902      0.29338245241608
  N   5.69330201339132     -0.91675467866329     -0.65081139753193
  N   4.80320745286170     -0.11196422593293     -1.43051718709665
  C   7.36457316636698     -0.81596753801459      1.14067903820227
  O   7.11395112055789     -1.49543847774986      2.12771514106431
  C   8.71423974682254     -0.35246361068393      0.77648429998898
  N   9.76446592970594     -0.59505213033834      1.54490565768140
  C   8.78054714618902      0.39574430193388     -0.44663776715603
  N   9.78454819409281      1.04388738795597     -0.95792944020991
  C   9.50515483076884      1.72858094038368     -2.11085738490627
  N   8.65064412757182      2.65928507065254     -2.31739489156276
  C   7.91083457847310      3.32291922532182     -1.35867972792226
  C   6.73741187185586      3.05967929347090     -0.76491389812691
  H   6.54449368556706      1.53024733446019      1.16363034973329
  H   4.57028085037426     -0.63830597433690     -2.25937805586339
  H   9.42333615577490     -1.13025441070019      2.34686341275792
  H   7.87700049412484      0.36665562923098     -1.05048994571629
  H   10.12624459777107      1.46122009443545     -2.96852153265104
  H   8.33413320392206      4.30203431602576     -1.13540447599082
  H   6.36554262032034      3.82783467142839     -0.09295605794906
