21
Coordinates from ORCA-job 14679optt
  Br  1.29302989016510     -0.01249152158857     -1.02572362616971
  C   2.95868072068132     -0.11047749510854     -0.10877443191397
  C   3.67036164614808      1.02303579661807      0.01488230578373
  N   3.32786711819193      2.35067021288452     -0.09899713306664
  C   4.48518544622457      3.07242082269915      0.09804717065142
  N   5.50016177273277      2.31404230922554      0.32164999945770
  N   5.01312865729656      1.03531220399978      0.27904191795328
  C   5.84348865291157     -0.11380975912697      0.02495871420422
  N   7.13883824417562     -0.01291573208787     -0.01168218022112
  C   5.10250575618212     -1.31077080239930     -0.20873189070190
  N   5.74328755849354     -2.42935141393467     -0.51542300695504
  N   4.99118041340965     -3.57077515668859     -0.38921526448716
  C   3.77565195652233     -3.74641784681823      0.16063532442992
  O   3.28159321337543     -4.84329683250782      0.37189363286611
  C   3.01369346724213     -2.45120863740896      0.41371969793564
  O   1.87704717489008     -2.44875837126866      0.82917550948034
  N   3.67359783861923     -1.32270712986959     -0.00347503215952
  H   2.41877069558296      2.67855017381522     -0.37206178273525
  H   4.52013370275158      4.14777815931923      0.08006570143004
  H   7.39866772854460      0.95913832553743      0.13145316996370
  H   5.49712834585876     -4.41596730529117     -0.60643879574579
