20
Coordinates from ORCA-job 14694optt
  Br  0.98796343979429      0.13989055303176     -0.35859863573432
  C   2.81339231634289      0.02502558952067      0.09132105873744
  C   3.42618127225742     -1.16861087273752      0.44894124711080
  N   3.14685674252723     -2.50703383981385      0.13981511793038
  C   4.33091745829463     -3.23201841757756     -0.00912561316902
  N   4.41972923840920     -4.39797795861398     -0.49237065201829
  N   5.34108902356581     -2.37050911872299      0.48900683809463
  C   6.55238569330861     -2.05702100054223     -0.15559980399936
  O   7.29567753899404     -2.83155500480324     -0.68811707016701
  O   6.75832718903388     -0.72830966400700     -0.04537349360612
  C   5.67494413775699     -0.10981407729803      0.71190502982662
  N   5.04090355365874      1.03630455245925      0.20161214849640
  N   5.62868751446411      2.24499145341340      0.02419683743273
  C   4.61351264740129      3.00488898074176     -0.31385518464304
  N   3.39857119010581      2.41228822366703     -0.33832114912571
  C   3.67317398686642      1.15173822284528     -0.01577388589633
  C   4.74074298357419     -1.15047831523391      0.84408502074750
  H   2.30930974765330     -2.80910636621094     -0.32861227023639
  H   5.39179606273043     -4.69295732073556     -0.49803180655960
  H   4.75683826326062      4.04826438061766     -0.55110373322131
