24
Coordinates from ORCA-job 14697optt
  Br  2.78295596961308     -0.85790651858630      0.97893106331129
  C   2.11563063060792      0.95459418301036      0.42950766076540
  C   3.05410535913344      1.65621880476190     -0.39348996400410
  N   4.35134617214332      1.69258588163792      0.01626366244929
  C   4.53381526008490      1.81598583886321      1.47697014763338
  N   5.70574289080852      1.67499304039167      1.99338330764208
  N   3.41532417007272      2.19160122840277      2.12804536274098
  C   2.27054717087929      1.99497738070511      1.48516441720566
  C   1.25049140413892      3.06086774134821      1.42449800773469
  N   1.56273939580681      4.35308422837066      1.56753396502247
  N   0.64029702699145      4.96210473949701      0.80438997083829
  C   -0.16608281762499      4.05965040216531      0.21004281868337
  C   -0.48592188903865      4.15828163380627     -1.27409301954532
  N   0.86978654588657      3.95658701680269     -1.83939755552174
  C   1.32416136802286      2.78428560934040     -1.59715261432261
  N   2.66864928154185      2.52112040030454     -1.44578869092735
  N   0.11686894254862      2.86953764993268      0.69003534451918
  H   5.04087765272574      2.19299307000477     -0.52716706267654
  H   6.36236924270969      1.39940651977413      1.26791540969407
  H   0.75781363055340      5.93459575328628      0.57564761312371
  H   -0.86623867438113      5.12936804592024     -1.58581542774597
  H   -1.20592952549201      3.37736468801203     -1.53187365128230
  H   0.71291793621517      1.92754821766982     -1.31683745134285
  H   3.23473285605248      3.35915444457827     -1.52271331399508
