26
Coordinates from ORCA-job 14700optt
  Br  1.92223466868457      0.65560604796271      3.03347711153421
  C   2.74750751761627      0.35796783530495      1.35503298256693
  C   3.35221561978701      1.37391112552297      0.66215071449589
  N   4.09659328736006      1.00310566570863     -0.40709865825117
  C   4.32911650764064     -0.37792935138201     -0.71373253628959
  N   5.37082751918591     -0.74908921509983     -1.37319600783906
  N   3.31001780750925     -1.19731705333207     -0.36382183227895
  C   2.41864019790191     -0.78053542404382      0.52471222505727
  C   1.05661366441545     -1.23203460765179      0.40886138461267
  C   -0.03906696017787     -0.36921237793343      0.25474311681796
  C   -0.01050080926329      1.03318320020706      0.34468790936367
  C   -0.76750888592299      2.00773732230421     -0.29021839552879
  C   -0.42269067647850      3.40281769569353     -0.38046564721860
  N   -1.09811522328064      4.37195507435218     -0.88105762147322
  O   0.82748828022554      3.82732970504971      0.14080723765547
  C   1.86889702963441      3.00762603652516     -0.06364100788547
  C   2.85267771158603      2.76520715913447      0.81573628115555
  H   4.48865581149550      1.71470852624122     -1.00174238705255
  H   5.97913310490232      0.04714971041306     -1.54196790293787
  H   0.94402740950333     -2.24016391202660      0.02901738537315
  H   -0.93401390190573     -0.82863346141643     -0.15812216483708
  H   0.80986778300106      1.42464096420885      0.90718083808908
  H   -1.65138687898029      1.73422180746266     -0.85770554539316
  H   -2.01219775845255      4.02078358260767     -1.15422364579935
  H   1.80289518604417      2.40807047852736     -0.96836710231300
  H   2.84907198796843      3.22989346565956      1.79095326837602
