24
Coordinates from ORCA-job 14704optt
  Br  2.41028722889267      2.67364846368617     -2.26537114383246
  C   3.65193978316835      2.29965923678081     -0.88862123611100
  C   3.24635428675983      1.60567791201615      0.27789036659792
  N   4.29090061426856      1.16869443072962      1.04168924943249
  C   5.63262097513582      1.49778146449761      0.84716253036599
  N   6.50295231555556      0.88838557353112      1.56795103963864
  N   5.89291275071965      2.50883658785775     -0.04993923764380
  C   4.92671547084189      2.86402712737939     -0.87626368441823
  C   5.18892989971622      4.09211255633727     -1.69138654553147
  C   4.74934708508998      5.26283872550396     -1.24540385279076
  N   4.07280399899917      5.38175481537242      0.02200960969764
  C   2.75162498530893      4.94240555401923      0.03770472737569
  N   2.32953002476741      4.14475693844322      0.91924172202488
  C   1.02875400599344      3.59852544915262      0.74851487980532
  O   0.01327736595216      4.29817913303230      0.70424387644587
  C   0.99479451402503      2.15969630394363      0.67102292888239
  N   2.02749551462065      1.30889863031358      0.69676265197888
  H   4.06238544332714      0.65694763629436      1.88092927897628
  H   7.41347655689501      1.28127733372805      1.34767690413375
  H   5.74574163237859      4.02489993711415     -2.61856795073075
  H   4.90407758662436      6.18216372534152     -1.79783416515576
  H   4.58655793164766      4.89310186488563      0.75128956321374
  H   2.14921408666572      5.27967154952966     -0.80854317776554
  H   -0.00069405735385      1.73005905050973      0.70084166541030
