24
Coordinates from ORCA-job 14707optt
  Br  1.81562926781588      0.99354911304406     -2.85608981304126
  C   2.73963848946294      0.60677362697874     -1.24584027097766
  C   3.57594827187188      1.57189712717694     -0.67226489460705
  N   4.46398931547398      1.10038436276628      0.23401054734062
  C   4.33587277741578     -0.26588977769373      0.68631756584465
  N   5.32718880411886     -0.93901960547508      1.11836175311665
  N   3.03226670894745     -0.67903375939486      0.72501114280123
  C   2.20788588439598     -0.18824339580331     -0.16704444943410
  C   0.82243720507433      0.02547488691543      0.34539075202176
  C   0.28103083140510      1.21150008108983      0.01404589879537
  O   -0.35869303246294      2.08035348475599      0.82847153082864
  C   -0.14796732239111      3.44027150492453      0.46557189650963
  C   -1.32979477812742      4.22903888897056      0.52382861355428
  O   -1.38710715054637      5.44307703962155      0.31677030911445
  C   1.09109421824853      3.89470138262644     -0.02019304289115
  C   2.21132384411334      3.05852344247259      0.02381366078735
  N   3.29324013124696      2.93125621050253     -0.76220542449923
  H   4.87210417683831      1.77651589647606      0.86460508473920
  H   6.17963178240679     -0.39634390330245      1.00937921573278
  H   0.65338416661947     -0.41775249953063      1.31785444421816
  H   0.47682662172365      1.64433748894457     -0.95232822657411
  H   -2.24009956829807      3.65390917260343      0.77541182478298
  H   1.07351831302559      4.83512666631005     -0.55746647395651
  H   2.08865104162108      2.28659256502044      0.78658835579333
