24
Coordinates from ORCA-job 14706optt
  Br  1.39941501902342     -0.06269141217332     -2.47480234844089
  C   2.94307666051025     -0.12059328977996     -1.35313473544971
  C   3.30472475854219      0.96156175645148     -0.65910513866165
  N   4.44920866475644      0.89153589337929      0.14471865070265
  C   5.45934807653153     -0.05120445524064     -0.09531904046713
  N   6.65646935651030      0.02046343200322      0.35413969434665
  N   5.03431677248114     -1.08498053186613     -0.88350420909970
  C   3.61821050656821     -1.33494634254082     -0.97475802414914
  C   3.02042090453906     -2.41617955736644     -0.33309260778575
  C   1.68186600186452     -2.53460657627892      0.18021942086767
  O   1.14140914816988     -3.63604057824720      0.43381483282286
  C   0.93574555884774     -1.26718924230965      0.41874925847881
  C   1.53798513671600     -0.17285687119507      0.89038444365824
  N   0.99152284316162      1.14441800044497      0.81321960721255
  C   1.42477781706181      2.22077634797797      0.09244495300435
  O   0.82065330402841      3.25823918492931      0.02691639406686
  O   2.64807123657277      2.15597048503029     -0.55535954684345
  H   4.72442051322852      1.74908526150224      0.59431253685460
  H   6.80843615722619      0.88830810208587      0.85746623367524
  H   5.67773293737066     -1.86037378867960     -0.92078185061411
  H   3.62686578749991     -3.31067746136071     -0.20135510799623
  H   -0.10169785686744     -1.23376263282472      0.09576950905207
  H   2.54046790991838     -0.23176179197325      1.29051627777029
  H   0.02955278573843      1.27550606803182      1.08854079699492
