23
Coordinates from ORCA-job 14701optt
  Br  1.54489883279136     -0.46957557750532     -2.49629115635972
  C   3.00618853000654     -0.34420019075222     -1.29665699074536
  C   3.42276139873220      0.84611093389322     -0.81982490398412
  N   4.58081990108032      0.83357304604603     -0.05652013270196
  C   5.52170107484401     -0.24021813965801     -0.24257281684334
  N   6.79248611062700     -0.03906568598667     -0.11771731153650
  N   4.96434244718884     -1.44767579212701     -0.44406179227389
  C   3.64233275926482     -1.50928169266591     -0.71493529382008
  C   2.86635141552683     -2.61270783274650     -0.24972256738333
  C   1.56717447387744     -2.54629216025549      0.19757458505270
  C   0.85320424790901     -1.31923979958469      0.47755524629696
  C   1.44554738677500     -0.18380164910829      0.89680840407347
  N   0.79880056877803      1.08203768549820      0.88652080148064
  C   1.09508267278684      2.20949262593592      0.19000112625326
  O   0.41459212063928      3.21061746400218      0.24447877846430
  S   2.54338234513040      2.36611287376067     -0.90538454872936
  H   4.95580582043981      1.73232504704848      0.20086452312453
  H   6.97857221288775      0.94722512807155      0.04064674374073
  H   3.39865952400532     -3.55756754800006     -0.17619840348926
  H   1.03992424888152     -3.47914402720619      0.37248919231313
  H   -0.21438821809884     -1.28734995988155      0.26460575229613
  H   2.47719019965612     -0.17560303080362      1.22140508086170
  H   -0.11043007372963      1.16422828202529      1.32293568390935
