25
Coordinates from ORCA-job 14712optt
  Br  1.51276242464678      1.69877859707281     -3.19940122035904
  C   1.96637653292290      1.22256647028541     -1.42069705297387
  C   2.72120431056764      2.03333336868902     -0.66678683908256
  N   3.04314075188366      1.65152480424139      0.62108057984353
  C   2.78672730697444      0.30520399463331      1.07233691253281
  N   3.44371396293937     -0.16279032709377      2.08977868129371
  N   1.82014151006439     -0.35121757483434      0.42232286325028
  C   1.27797099663390      0.14650556226604     -0.71608028833439
  N   -0.21058934811790      0.39408831886614     -0.64896550811850
  C   -0.34205126087517      1.59367342966242      0.05492813996348
  C   -0.31757410177366      2.01076716878444      1.35100239809518
  N   0.10178562665720      3.33822426651202      1.39555864422254
  C   0.29394544271670      3.65721172228181      0.15991270601829
  C   1.17447126894344      4.71645063183874     -0.41423572348590
  C   2.67019628322624      4.36295639683541     -0.25392197524103
  O   3.16603072652579      3.27411697591630     -1.04181817834294
  O   -0.06012105982806      2.69429192547118     -0.70320940774686
  H   3.87136845252755      2.08722988702702      0.99797288583753
  H   4.08620242248436      0.54020874860596      2.44439659298381
  H   -0.59797689138316     -0.37235423854487     -0.11103325058886
  H   -0.46655386557145      1.42613086847034      2.24133081736404
  H   1.02140982857971      5.65949922819118      0.11374277030144
  H   0.94021599841353      4.85528763315248     -1.47039806751579
  H   2.86244852748551      4.17638341629598      0.80535352090896
  H   3.26475415335621      5.21692872537351     -0.57817000082585
