24
Coordinates from ORCA-job 14713optt
  Br  1.19918095121025      0.09408941323521     -2.70643321265152
  C   2.02638679119659      0.41279933784878     -1.01654412522518
  C   2.74448972457330      1.62543515385495     -0.84585878687838
  N   3.32937896801183      1.75236596488039      0.38733710850494
  C   3.11874068150408      0.81657994442623      1.42850831096886
  N   3.93530588214072      0.67738963154710      2.40982526423960
  N   1.90046904849969      0.20900597732281      1.35457321729771
  C   1.30199351879542      0.14722689786669      0.19282551110162
  N   -0.12818580423876      0.19188315949779      0.25267254669157
  C   -0.34942715738227      1.48592613164142      0.22402918093560
  N   -0.82939820231283      2.27117422912942      1.24238700306167
  C   -0.20970021097698      3.55284121087693      1.14283364853790
  C   0.46348436031427      3.57743674010315     -0.03689526326127
  N   0.15409376724128      2.39195433543867     -0.67256878829794
  N   1.37001950962505      4.42027882117770     -0.64572534550569
  C   2.62520028336259      3.92752577459617     -1.25726565863705
  N   2.72814800454601      2.64268923216731     -1.70544706036955
  H   3.79181987864890      2.63013662081938      0.57701039396747
  H   4.74896664926618      1.26839492884266      2.25858589682121
  H   -0.88405453687330      1.80484524944472      2.13473110787230
  H   -0.30051442092517      4.28647837014173      1.92133946130630
  H   0.57933807054466      2.13336586127778     -1.55000492580591
  H   1.50967227753590      5.28290578179384     -0.14219751120289
  H   3.00159196569247      4.69727123206898     -1.92571797347136
