24
Coordinates from ORCA-job 14719optt
  Br  2.03918390635875      1.26708027300561      3.20041920551908
  C   2.85472119154439      0.83588364609719      1.54104995889665
  C   3.56012410982745      1.83936800291116      0.81127237632950
  N   4.19749927061622      1.35707375175985     -0.30951983641223
  C   3.85344652372117      0.07517561935592     -0.84955251807875
  N   4.62234731818422     -0.55200976992941     -1.65231961712947
  N   2.59119699765896     -0.35223993505245     -0.52354847300636
  C   2.11719012484479      0.08190025201644      0.59477830988801
  O   0.74203175308319     -0.00703052275063      0.76514034981332
  C   0.14987468548623      1.22952786123596      0.52531050471643
  N   0.84516275410185      2.18681080415291      0.12288617869040
  C   0.58684257759434      3.50558076344125     -0.18741388494381
  C   1.68150201445163      4.35197451440437     -0.48539031323070
  C   3.00076988411330      4.06053117844592     -0.15001109558477
  C   3.23541020698034      3.18522037997185      0.96154872217256
  C   -0.75389714049287      3.93228598836981     -0.36872718246514
  C   -1.91319186069855      4.23744333830637     -0.51949646579747
  H   4.45461358586072      2.05045514436435     -0.99728770166114
  H   5.49128473975596     -0.03355330252384     -1.75556275738545
  H   -0.91401027992971      1.19283754870169      0.75474348247523
  H   1.45432355718903      5.23400149654331     -1.07875881603223
  H   3.79897485820878      4.47880630462199     -0.76009306670515
  H   2.54608397684882      3.35119586312027      1.77918379148964
  H   -2.92948475530907      4.51768079943004     -0.64865115155816
