24
Coordinates from ORCA-job 14714optt
  Br  0.99299477172949     -0.09447514660652     -0.46524396923944
  C   2.84997807865994      0.12616409650337     -0.25556875647955
  C   3.47177874825836      1.33343791815182     -0.26560031172954
  N   4.82682746581165      1.43677798687293      0.01887806297202
  C   5.54981483989696      0.35287731982337      0.51509369801204
  N   6.71930910802111      0.35500295473723      1.01614237113856
  N   4.90399464540519     -0.86195247968652      0.39205965195136
  C   3.58700564789062     -1.09654812260055      0.03976582507568
  N   3.06527813814838     -2.26390365779707     -0.00337635308010
  C   5.54143550359574      2.67742738567310     -0.13608084499158
  C   5.21938601941522      3.80365298279921      0.59356271983782
  N   4.04165033096964      4.12745930223920      1.13981683774098
  C   2.92512251918265      3.59350878242257      0.66291283351875
  C   2.74636739309315      2.62925839115195     -0.40702962582423
  N   1.86768697943791      2.74508520231843     -1.35140966100444
  C   6.71469391584885      2.63790300165552     -0.92685960516874
  C   7.72558687771283      2.60626328470403     -1.58551819711285
  H   7.11690455188719      1.28669294077367      1.02957532138086
  H   5.45919593105402     -1.63828921517380      0.71622533899999
  H   3.75275907993764     -2.97197051582101      0.24726982386359
  H   5.99458008125788      4.56342032834579      0.66907074546504
  H   1.99892039636517      4.05414118069268      1.00422693641427
  H   1.41398632725851      3.65611404423939     -1.26232571723030
  H   8.60474264916186      2.57695203458118     -2.18058712451017
