25
Coordinates from ORCA-job 14728optt
  Br  0.49560985035359      0.70773975424493      0.01020733077387
  C   2.94602798786637     -0.03187071872553     -0.00018706729571
  C   3.73149206601185     -1.13364702352634      0.00638865194839
  N   3.48478025013718     -2.48487886354160      0.09088484567739
  C   4.70641788736903     -3.18141012504328      0.07951028681420
  N   4.87490707006016     -4.45119799106204      0.16464779270147
  N   5.73380651247619     -2.25007185320035     -0.03702403759175
  C   5.15863024800178     -1.06336026531586     -0.07680443761695
  C   5.78443581454195      0.21437437849074     -0.18096833530684
  C   7.27869062055847      0.26596281810902     -0.27590676607180
  C   7.93773688566742     -0.01391356505732      1.06517622428582
  O   7.60545294600299      1.01583709433254      2.01748045908890
  C   8.29105238844929      2.14591031318955      1.94167986763583
  O   9.21301905513108      2.37238587619184      1.20939729718808
  C   4.93772726103653      1.28480205305283     -0.15599705534822
  Br  5.56275849017960      3.07798555732070     -0.20836565483087
  N   3.59190829088732      1.16378538827485     -0.07746650870659
  H   2.57677645519299     -2.90311096362278      0.18276993502263
  H   3.97572631180722     -4.91789609717775      0.24755622809061
  H   7.63135895324974      1.21994810619808     -0.66679161627556
  H   7.59812623656744     -0.52731938545529     -0.95628061684405
  H   9.02129082778691     -0.06478383678367      0.96580640839677
  H   7.55076968753067     -0.93773569250812      1.48863411402977
  H   7.89589981157476      2.86534026400547      2.66993251586707
  H   3.00459809155926      1.98912477760940     -0.08027986163250
