25
Coordinates from ORCA-job 14729optt
  Br  1.01377335980272      0.11710877828955      1.36068973067281
  C   2.97487381740435     -0.00297961744348     -0.18512178070428
  C   3.67356194751395     -1.16346906164658     -0.17343163114465
  N   3.27942112072184     -2.47655402676126     -0.06991946264786
  C   4.42142831731209     -3.29683672387442     -0.05827745662250
  N   4.45211490040682     -4.57675680128223      0.05622861914950
  N   5.54396647337212     -2.48585533905786     -0.19901659423396
  C   5.10190530704554     -1.24664728888320     -0.25266358468816
  C   5.80906814339703     -0.01488207082416     -0.32616606116779
  C   5.09224867704772      1.13877739723160     -0.30040601180976
  N   3.72250605149160      1.15067500827038     -0.23755091572166
  C   3.04419362703528      2.39973553493104     -0.23678029537152
  N   2.04142992472457      2.53937989085481     -1.08558707753595
  C   1.38112047316603      3.69114175418222     -1.07490156567648
  C   1.70113069191551      4.75455180127025     -0.24400098688944
  C   2.76671100531035      4.59890121683047      0.63128485815006
  C   3.45041378599033      3.39790138196510      0.64700073539693
  H   2.35445822451669     -2.75965709522276      0.20514432642976
  H   3.50505979180088     -4.93586607214421      0.14553541169572
  H   6.88714971311248      0.01180059866439     -0.39045416998820
  H   5.55935010224402      2.11170057130830     -0.37064523627188
  H   0.55417958862804      3.76894779557534     -1.77276074069974
  H   1.12589285549734      5.66969483156628     -0.27752581889029
  H   3.04416792114628      5.39280669940614      1.31334246818213
  H   4.24987417939628      3.20638083679427      1.34898324038719
