23
Coordinates from ORCA-job 14720optt
  Br  2.63908992311679     -0.66932803764716      1.99702558062302
  C   2.29452682357150      1.07122412962223      1.13385001915267
  C   3.44211021477587      1.92642933269671      0.98967503195019
  N   4.39157974714817      1.40964415621246      0.07141813397670
  C   3.97133437298665      0.45285557637433     -0.86010721408349
  N   4.74928789854559     -0.35033114239013     -1.48185714146864
  N   2.60625138303545      0.48247163436213     -1.17427386912293
  C   1.79160341501759      0.82836208185246     -0.26191474988959
  O   0.48809973064923      0.97115455580909     -0.62763137641438
  C   -0.31461273753267      1.98854827477295     -0.07560319970447
  O   -0.54297189461871      3.01645791342962     -1.01549273778232
  C   -0.05869430846079      4.34844278360110     -0.81914524333967
  C   1.19729750808213      4.31641026776838     -0.01862898428124
  N   1.20811350390698      4.60927270967545      1.25231020335811
  O   2.30896204174746      3.91761250518664      1.72184821394545
  C   2.80120896916916      3.20743837060168      0.68819844570513
  N   2.22285822328322      3.53417971089952     -0.43912683060421
  H   5.38048942684997      1.43351984567628      0.26326534237236
  H   5.70154927394062     -0.24056098868064     -1.13711894230542
  H   0.11412977015838      2.35158364458439      0.86058818199831
  H   -1.28479600578286      1.52853361061689      0.10662046988243
  H   -0.80805045480338      4.94972189728666     -0.29839134339718
  H   0.10663317521353      4.74835716768881     -1.81850799057084
