25
Coordinates from ORCA-job 14739optt
  Br  0.45088739068830     -0.51987853065202      0.45445663580992
  C   3.00882387635235      0.00210927705898      0.08786322508236
  C   3.69316928688086     -1.15603499728500      0.02620439812164
  N   3.36504128961133     -2.48709888853490      0.07920080829519
  C   4.53195450202065     -3.26056246238159     -0.01832609875677
  N   4.62294751126704     -4.53850009823238      0.00344493294664
  N   5.62631078113004     -2.39736562740271     -0.15115981756684
  C   5.11867232841636     -1.19533538393005     -0.12255411899544
  N   5.78445232907219     -0.01302887083990     -0.21368986853208
  C   5.10321330780031      1.17638164419583     -0.15706531236252
  C   3.74631046457119      1.20948708973249     -0.00495566187278
  N   5.87323602064921      2.35062043219909     -0.28925141914265
  C   5.24855903290354      3.65402154753777     -0.21423795505681
  C   6.43366842666740      4.56214023358189     -0.54026107402234
  O   7.58873802418020      3.75753597700442     -0.32487807070249
  C   7.23556064765683      2.44593427658085     -0.27764794275284
  O   8.05268975398385      1.56549493167528     -0.23393457848652
  H   2.42163196111980     -2.81218775369338      0.21987136946400
  H   3.69730348681813     -4.94628335564926      0.10604955699301
  H   6.79510943335148     -0.00332789612408     -0.28659707586213
  H   3.23142933752146      2.15932860438630      0.04245799555692
  H   4.83624255197029      3.82491202801897      0.78386988556469
  H   4.44480147666117      3.74672581529926     -0.94362848583219
  H   6.49315231873812      5.43718907236062      0.10230565641827
  H   6.42209445996752      4.87772293509345     -1.58453698430822
