25
Coordinates from ORCA-job 14730optt
  Br  1.83455949405765      0.29191550020272     -1.79757624290666
  C   3.50025471521648      0.03441837767903     -0.96274486952112
  C   3.86268013530529     -1.12924443228339     -0.40586371003430
  N   3.28419236013279     -2.35978044274179     -0.27217198482488
  C   4.17835475747747     -3.19870929485262      0.45059547508963
  N   3.95048239779285     -4.41032875823849      0.79590309958391
  N   5.33365893858728     -2.48952510048620      0.70659798908394
  C   5.16820142614388     -1.27312035300731      0.21698808909245
  C   6.02991483246314     -0.17310710546124      0.18676394295147
  C   5.60652370173440      1.01165400558943     -0.40727034890597
  N   6.40665150278423      2.10160584673617     -0.50683234810069
  C   5.95436980429395      3.35355946287596     -1.10483951558080
  C   4.71198847395901      3.96577359279035     -0.50782627349727
  O   3.59446500443437      3.83209080243843     -1.08258354661633
  C   6.97091361238366      4.42637541426489     -0.92160216633822
  O   7.69065132134114      4.47497782234550      0.07389238709853
  N   4.36259168416123      1.10711595275321     -0.95985866911367
  H   2.32435857269443     -2.57817795339898     -0.46944780393565
  H   3.02961464906242     -4.70025524423389      0.47811262641334
  H   7.02798206949942     -0.23523528795895      0.59415155702240
  H   7.16390369120000      2.19947141418707      0.15443252740233
  H   5.74752112203342      3.20103019577018     -2.16853083655266
  H   4.83584836073253      4.52214089843142      0.42749457830315
  H   6.96870188932968      5.21895170391108     -1.68417648538953
  H   3.97561548317893      2.03640298268734     -1.19960747072337
