29
Coordinates from ORCA-job 14731optt
  Br  0.67628494300556     -0.79679191120260      1.22041187979669
  C   2.68151515219367     -0.14962839952221     -0.03184075868342
  C   3.45064287823623     -1.19622482523393     -0.41209824547793
  N   3.14254691216243     -2.47689113733709     -0.81502611509830
  C   4.33867682530681     -3.17900789409263     -1.03130420282316
  N   4.47303480120093     -4.41198592405940     -1.35559707205813
  N   5.40673667566923     -2.29497184922890     -0.83743489914367
  C   4.87420510111950     -1.15393658002830     -0.46225280451091
  C   5.51188056462054      0.06257608821104     -0.04328105325023
  C   4.67880941833692      1.03757253410542      0.38298431768088
  O   3.33623495637748      0.96359056169500      0.37792162024219
  C   7.02389414244649      0.13028964334820      0.01579169482730
  C   7.65553601139572     -0.04558228859170     -1.37477061274442
  N   7.58321295419413      1.14818585811726     -2.20964673428408
  C   8.16559044768478      2.29192338599096     -1.52222758948146
  C   7.52700752320155      2.54479471066058     -0.16415432299788
  N   7.59132889980771      1.32669565949749      0.63644330047250
  H   2.24662416708707     -2.90100305621356     -0.63918614141499
  H   3.55854956194734     -4.84831758994893     -1.43924394624879
  H   5.01087476879150      1.98285699386773      0.78699415304890
  H   7.34021135272222     -0.73375691375209      0.60817834720208
  H   7.18214255419027     -0.88456551615337     -1.88067955802993
  H   8.71331992613945     -0.28234961049385     -1.23356697564723
  H   6.61261222023580      1.34108191291906     -2.43928915548593
  H   8.07361995349797      3.17964639632232     -2.15120731572783
  H   9.23099609550844      2.08515454744542     -1.38317555470814
  H   6.50420055864449      2.90885655071698     -0.33902190668723
  H   8.06859734391712      3.33143395687377      0.36747432101138
  H   7.20111329035805      1.47135469608733      1.55880533022177
