23
Coordinates from ORCA-job 14743optt
  Br  1.11280620020461      0.24820953546299      0.20443879386180
  C   3.00970125823211      0.10081265983829      0.11318509665954
  C   3.61410742231653     -1.13632641320145      0.07602019313246
  N   3.17672724419303     -2.43736467748914      0.07240579466518
  C   4.29367297637913     -3.29336913827401      0.01644890581270
  N   4.27752235054785     -4.58201736318778     -0.00578236702343
  N   5.42891283696627     -2.50767257595910     -0.01136359379089
  C   5.01250147578334     -1.25063392670418      0.02355253968403
  N   5.77584539857438     -0.08329547849805      0.01178699440753
  C   5.03953160079510      1.12492669916875      0.03802305025729
  N   3.74030560240801      1.20733237071260      0.08943868886849
  C   7.16124556776745     -0.02715459801067     -0.02324748404474
  N   7.70299941402915      1.20638401043538     -0.04643773127317
  C   9.03416516443327      1.26688965332430     -0.07073944590435
  C   9.83612028193942      0.15168517256735     -0.07209751938537
  N   9.29852269043574     -1.08944418499688     -0.05087859603584
  C   7.98851376226579     -1.18216812844523     -0.02816652685595
  H   2.21655868660332     -2.72874683022153      0.09877759466528
  H   3.31836036071830     -4.91701222585042      0.02405270924164
  H   5.64283761200685      2.01307785820030      0.01818835226682
  H   9.47063462927354      2.26117444245169     -0.09080562734576
  H   10.91600046010761      0.22896002884967     -0.09021279360285
  H   7.54340700401914     -2.16524689017288     -0.01158702826041
