23
Coordinates from ORCA-job 14742opt
  Br  0.51286983284407     -1.00880047002995      0.56767695448142
  C   2.79108813712545      0.07323368958845      0.03848511744901
  C   3.52814317944130      1.19755252737869      0.11427776026123
  N   3.23832353377522      2.55100635046439      0.21286934718323
  C   4.49208777130867      3.25518820320656      0.29577888272413
  N   4.64587374424374      4.51163547171670      0.44074125051608
  N   5.52025326115126      2.33352253172154      0.21161055600198
  C   4.97342444990305      1.15199879290818      0.11316407646285
  N   5.63195653518993     -0.03885379688670      0.01808536936333
  C   4.87570654354716     -1.09051958074121     -0.05317306044827
  N   3.52856058010889     -1.07841522571312     -0.04502655219951
  C   2.00012594377108      3.12788252467397      0.03449914738604
  C   1.64907693585082      4.33415487981182     -0.43360475934826
  O   0.26691241979371      4.44676325280154     -0.38393352857877
  C   -0.24615019979904      3.27243384198077      0.09569374359233
  N   -1.47463792599701      3.00354566901140      0.24661699407587
  N   0.82643285481508      2.46910572384817      0.38782010894733
  H   3.75180869549635      4.97585489649556      0.55335004265400
  H   5.33504039823499     -2.07081924919795     -0.12919622478258
  H   3.00484004202895     -1.94407615857927     -0.05415173546235
  H   2.20167793761475      5.16420797578529     -0.82624892143411
  H   -2.03638510585477      3.78710910721249     -0.06939651869771
  H   0.72697043540609      1.47428904254251      0.58106194985274
