23
Coordinates from ORCA-job 14756optt
  Br  3.63814878587098     -2.00527703708912      1.99441397493574
  C   3.90347497465751     -0.05606484617450      0.36689540682846
  C   2.73798961585822      0.64223341076975      0.24770978749898
  N   1.79669202409858      0.60700526485709      1.30698534690324
  C   1.33236228438924      1.72109375436529      1.94861692936883
  N   1.02098090004736      1.85216229134708      3.17729899234078
  N   1.15111676292265      2.83214848176418      1.11088871587267
  C   0.68482577403962      2.73635895934944     -0.19203480232576
  C   -0.33643581068767      3.42403656292700     -0.80593591974502
  C   -0.25432977721538      3.03038212992822     -2.15647044928754
  N   0.72013711760305      2.17463682182645     -2.36761378436042
  N   1.29742240915679      1.99609579172119     -1.15760675452450
  C   2.45857432882095      1.21455972715880     -1.01645825668758
  C   3.28957149470647      1.03760789424554     -2.08218046865391
  C   4.48690867249212      0.26843599771523     -1.94615188729166
  O   5.31557166442335      0.03201595806265     -2.78787688555809
  O   4.71740037084050     -0.23260813636962     -0.65478022964018
  H   1.96313925443959     -0.20195199014745      1.90336886258022
  H   1.29980632116800      1.02957094231805      3.70471999682183
  H   0.74867254734364      3.59737256594033      1.63087773357046
  H   -1.03203903288920      4.09777729471477     -0.33697692555854
  H   -0.88402796900472      3.32776313891308     -2.98052698105102
  H   3.07503728691821      1.47664502185647     -3.04216240203697
