25
Coordinates from ORCA-job 14767optt
  Br  1.25730712263341     -0.10570446663327     -0.94949604753286
  C   3.07509510841443      0.00042710649812     -0.37411978216237
  C   3.83679812181219     -1.18927438604048     -0.30299806540046
  N   3.26090018718001     -2.43038072807887     -0.65525999740145
  C   3.63569420594681     -3.64379188294968     -0.14023168714551
  N   2.89580649875999     -4.69840354312147     -0.14311192446540
  N   4.93029065738262     -3.65537658867347      0.37852617274642
  C   5.81820516798393     -2.57917474554686     -0.09405283538059
  C   5.17596937252339     -1.23529701331952      0.06241764263913
  C   5.90641223546752     -0.13680225388555      0.45134890759546
  S   5.21885562820737      1.46239577364563      0.54827408978018
  C   3.52517843733481      1.29729984205856     -0.06076744201495
  N   2.82323580219239      2.37914101001596     -0.14120466045671
  C   5.42180927028601     -4.72176771020222      1.14589343607308
  N   4.86186774380461     -5.82458482094603      1.42303385268658
  C   6.74661580166669     -4.50555822595403      1.71686862574867
  C   7.82995698368822     -4.38493627254727      2.21340240469298
  H   2.31244436950006     -2.38679468842558     -0.99637527048167
  H   1.96496736688922     -4.47367377907815     -0.47912947794694
  H   6.04815787130403     -2.77379036474237     -1.14973908115041
  H   6.74546962839578     -2.62292235323357      0.46604986717773
  H   6.95067825869331     -0.20342938615459      0.72132525763005
  H   3.36637752712159      3.18752333961649      0.14919817664291
  H   3.95204595296204     -5.86526423786425      0.95820690712185
  H   8.79086067984953     -4.27585962443751      2.65494093100426
