29
Coordinates from ORCA-job 14779optt
  Br  2.44754194047907     -1.85756225110013      1.57532182384378
  C   3.01243999413537     -0.49449334874050      0.36954247218126
  C   2.76011357250381      0.84744706278615      0.72471107609895
  N   1.56886211102994      1.27216156758759      1.39307144316617
  C   0.54732575141168      1.77921272160948      0.51427094248491
  N   0.25427273798786      1.34142111524646     -0.63852495500632
  N   -0.00699913709605      2.95667785674639      1.00955351682427
  C   -0.20945116839720      4.04699839074130      0.06651775886462
  C   1.07176155145886      4.83391740903093     -0.22549848546190
  C   2.22717183380546      4.02782900568950     -0.84264870235674
  C   3.11706234874587      3.24160147980088      0.15735998381384
  N   3.28692321506937      1.82882302314045     -0.15587477065612
  C   4.04726225554863      1.50264968270068     -1.25725112209807
  N   4.60460904421534      2.32438783003028     -2.06453062192920
  O   4.23974613187764      0.19657257225787     -1.52216067675714
  C   3.85150818023686     -0.88033900122180     -0.67271206044335
  O   4.28564563316247     -1.97012910929569     -0.99146327803920
  H   1.24337821530845      0.55298111756577      2.02654872038034
  H   0.78524123708721      0.49203482100205     -0.82665089619094
  H   0.49195560080617      3.24321030420263      1.83953510855457
  H   -0.97028023122501      4.72479641772668      0.46144622636056
  H   -0.59615977480976      3.60439448508012     -0.85088425118392
  H   0.80587011630702      5.64542023570819     -0.90986368019851
  H   1.41644140711514      5.31742174410219      0.69748844181094
  H   1.82977082539195      3.32503061169668     -1.57738014456519
  H   2.85925007268049      4.72877937895406     -1.39214492263581
  H   2.70040004981740      3.28629814021789      1.16021025578644
  H   4.10883679413771      3.70248089295741      0.20760865776105
  H   4.39449969120819      3.28297584377641     -1.82359786040930
