26
Coordinates from ORCA-job 14778optt
  Br  1.54980383733245     -0.50061760377699      0.98957020182320
  C   3.10502407563027      0.29750242253133      0.22336106007619
  C   3.36638802342040      1.66385308002137      0.43741157355670
  N   2.52272547710155      2.29032979970300      1.32329819317952
  C   2.23282973057146      3.65026645013068      1.46066084376914
  N   1.36273751678434      3.96348712118877      2.36748503138315
  N   2.99103232361595      4.32727245789259      0.59822679204958
  C   3.32097726798450      5.59767846515224      0.67988060778671
  C   4.56023204607224      5.89480452582635      0.16185047570248
  C   5.43206008383947      4.82847054501691     -0.17829024479597
  C   5.37269716720814      3.44384757564547     -0.21904231686058
  C   4.51348703345741      2.25717273728938     -0.23261212320130
  N   5.14621972649307      1.32523167594430     -1.10113447992124
  C   4.92454430110444      0.03468517806773     -1.25577360059883
  C   3.91210866206289     -0.59110606999506     -0.57108898719802
  C   3.76739673697460     -2.01279726173465     -0.76413822150017
  O   4.49758144407128     -2.69429176866507     -1.48642833330253
  H   1.92467836541180      1.69682544689623      1.87420983083151
  H   1.23769844253203      4.97152033854019      2.37280686492022
  H   2.71302816110133      6.35576872103066      1.18869429093252
  H   4.93839229730594      6.90820265537981      0.13041784717842
  H   6.43533944332228      5.17015141634525     -0.42571178743672
  H   6.37865265998020      3.08721056731473     -0.45641350704420
  H   5.87506245846399      1.73551129055440     -1.66220046140038
  H   5.55219883518889     -0.51572393281623     -1.94405428270714
  H   2.94310388296895     -2.49425583348345     -0.21798526722227
