26
Coordinates from ORCA-job 14780optt
  Br  0.94640853627810     -0.27019921506244     -0.57344736605503
  C   2.84425039525254     -0.14248121049987     -0.38328298019261
  C   3.61439596403654     -1.27641860392004     -0.29471017729901
  N   3.05508624586822     -2.54321987593355     -0.56184574184193
  C   3.60161326023106     -3.73789319616262     -0.16444991642453
  N   3.03919759113014     -4.89075350132028     -0.23877212911799
  N   4.87279806815808     -3.62824317065072      0.35249179629159
  C   5.72733875669152     -2.52542179114778     -0.07129141218865
  C   6.25550557187456     -2.77167108083641     -1.49814119930870
  C   7.18440624416677     -1.64785795315280     -1.96337344294802
  C   7.75932976415463     -1.92320733994916     -3.27820558097587
  N   8.20298203488813     -2.16009604023557     -4.30909607350062
  C   4.97261945395277     -1.23052958863221      0.04841867042086
  C   5.65062443182147     -0.06677447197203      0.47019493461020
  C   5.15537681154468      1.24111561012664      0.48071451258101
  O   5.69341969009196      2.28019456130939      0.84533533927328
  S   3.44847425337001      1.48012878757085     -0.20008175015315
  H   2.08954545637153     -2.56259225529937     -0.84594664385385
  H   2.07958497861133     -4.80390883068709     -0.55922795580193
  H   5.30566376946121     -4.53573830020237      0.43937008973573
  H   6.58067416467139     -2.49387893964065      0.61269541796332
  H   5.40333882768602     -2.84790859204061     -2.17737554609525
  H   6.78913444594476     -3.72653505719478     -1.53001227958376
  H   8.00571820388700     -1.51089261411582     -1.25533026010261
  H   6.64175436610230     -0.70163753842052     -2.00132205187767
  H   6.66775871375321     -0.16357979193013      0.83769174644520
