24
Coordinates from ORCA-job 14787optt
  Br  1.17823795204793      0.22504571729983     -0.42604060151313
  C   3.04675167375675      0.06224878550079     -0.20141920735067
  C   3.69705508683111     -1.13427706392707     -0.19812335547976
  N   3.03578319479243     -2.34505599722478     -0.45462453448224
  C   3.57691189720406     -3.57979553765463     -0.17980332806590
  N   2.95974131752837     -4.70420099773287     -0.27581257843865
  N   4.87958316574459     -3.54786423989464      0.24366710081728
  C   5.79223804732541     -2.46327267536055     -0.09510206051050
  C   6.40034455798231     -2.65408379236398     -1.49316550676354
  C   7.26015472396695     -3.87349348261085     -1.62669942945555
  O   7.48067825498504     -4.66310806919636     -0.74575025320224
  C   5.08270345146134     -1.15025020958999      0.01384239610739
  C   5.73202202020131      0.10172214772711      0.16319755306049
  Br  7.61190365123610      0.17746011434141      0.42225147959650
  C   5.07139158654586      1.34103146973979      0.16300915166578
  O   5.50548268044981      2.46671882151315      0.29547323490655
  O   3.65904190408317      1.25995128781431     -0.02053725891438
  H   2.04400125286482     -2.30603619697929     -0.62033807477862
  H   1.98538327157850     -4.55991491107796     -0.52151884675356
  H   5.29413413926143     -4.46644297228268      0.29450777003620
  H   6.61088499439040     -2.49887124824992      0.62593697897113
  H   7.01453750126440     -1.78601947840223     -1.75893500508140
  H   5.60803494384530     -2.70851843022200     -2.24947418370120
  H   7.71899873065256     -4.02597304116655     -2.62554144066996
