27
Coordinates from ORCA-job 14794optt
  Br  1.98776188188711      0.05297350252929      1.61180322135234
  C   3.19449148045934      0.81701316095299      0.29059806424749
  C   3.79680080638444      2.01163809286191      0.59890686321658
  N   3.56028354754339      2.67432733973154      1.82630174048282
  C   3.21243902792444      3.99493083054387      1.96800121012470
  N   3.22604266024674      4.66228280101347      3.06648846374299
  N   2.83016603033163      4.61905540257176      0.78903521098017
  C   3.30415387124180      5.97553072393865      0.61932900049431
  C   4.82688814016112      5.98257402865194      0.35938306414265
  O   5.17959854880950      5.02181604999870     -0.58778562143208
  C   5.62465612652478      3.70483641574132     -0.07652686782699
  C   4.74303049167312      2.55654697075981     -0.35443749246575
  C   4.87214157814404      1.79351557565342     -1.55332026080833
  C   4.19576581601636      0.62392463989401     -1.72834905086557
  N   3.35292770079343      0.06909658425067     -0.79473699855898
  C   2.58266360034616      6.63311896183930     -0.48061767703998
  N   2.05099099284955      7.18775473780793     -1.33157106166927
  H   3.43073612105244      2.09650169496803      2.64157688445331
  H   3.57646559110589      4.08347401732755      3.82313523350755
  H   2.99530998164988      4.05448356342504     -0.03721455631252
  H   3.08734097759331      6.52517478423921      1.53678401547386
  H   5.31397908424181      5.79429745282815      1.32312913827104
  H   5.13775292653222      6.96783765029369      0.00123410752633
  H   5.80101823524596      3.82662375217445      0.99750198593716
  H   6.58714994748605      3.55639089236711     -0.57284850696763
  H   5.53716789525214      2.14435669348725     -2.33521770528318
  H   4.30827693850324      0.05492368014886     -2.64458240472300
