23
Coordinates from ORCA-job 14790opt
  Br  1.70889784540265     -0.68100302012306     -1.71773786821925
  C   2.28514894930149      0.32608193995122     -0.23723746547441
  C   2.97005224148420      1.48965407406509     -0.31289484680518
  N   2.90454254588698      2.39404057618095     -1.33676151247858
  C   1.68729347494146      2.80736016447241     -2.02516007044718
  N   1.80367432552833      3.60728951502987     -3.02885075946563
  N   0.50634315869435      2.27732638722582     -1.64110873044716
  C   0.23080136176565      1.95102457500554     -0.36970149191051
  C   -0.61094630977760      0.79512577711056     -0.13045266915395
  N   -0.51331995434638     -0.09147637429157      0.81821584503493
  C   0.63933687372351     -0.12166970160946      1.59316813219595
  C   1.90142648895855     -0.00098187317115      1.12935218353538
  N   3.04385069948381      0.12912398234479      1.94248079207878
  N   3.91303563063604      1.12762067820798      1.77065434974942
  N   3.81556354632366      1.85445794661445      0.74952457268622
  C   0.69395165215825      2.72331931966796      0.73161483417116
  C   1.10800967168945      3.42584742306277      1.62071246384294
  H   3.59896462063618      3.12383479056313     -1.27331383808188
  H   2.78726192803643      3.75486851201607     -3.23934776634790
  H   -1.38332765697635      0.63091251791950     -0.88151987140074
  H   0.50159975863595     -0.36617379304858      2.64471483739975
  H   3.09876339237913     -0.28824753911764      2.85719918205823
  H   1.45407575543411      4.03966412192330      2.41544969747962
