21
Coordinates from ORCA-job 14799optt
  Br  0.49214753117984      0.01261574586012      0.11664696739253
  C   2.35971122215358     -0.00581161646159     -0.12948060709319
  C   3.04448201819357      0.93706339284761     -0.82476197208914
  N   2.68121283051907      2.10453216722724     -1.50580106050306
  C   1.44844377604815      2.74664123595174     -1.63107102418954
  N   1.24701126474200      3.82151071814162     -2.26192814044938
  N   3.78223398144007      2.71450444737100     -2.08554117986195
  C   4.77536223236611      1.97070684515042     -1.75341516106699
  N   4.41891446627353      0.89219511310214     -1.01056549958696
  C   5.20963845724995     -0.10565741755275     -0.44631236376470
  C   4.79550859539414     -0.83479988765388      0.69869996305534
  O   5.76812887246088     -1.80136143740306      0.88248520430509
  N   6.80915138095421     -1.63947037930007     -0.06691678697677
  C   6.42052823908723     -0.63999343703909     -0.84304432474108
  S   3.12525174428337     -1.41612032973208      0.66330104222615
  O   2.94735858725499     -2.58307540416404     -0.17451356282385
  O   2.55900631184667     -1.51036945975672      1.98699108684644
  H   0.64386582561270      2.23439186816337     -1.12334969038434
  H   2.11865914105053      4.16029711275796     -2.66984527103092
  H   5.80025128316591      2.16586709040909     -2.02325128661993
  H   7.04913223872341     -0.34566636791907     -1.67132633264374
