27
Coordinates from ORCA-job 14797optt
  Br  1.99613289307558     -1.54873691426914     -1.65076151761775
  C   2.65452375749872     -0.10237274800236     -0.62122504733139
  C   1.87546810293450      0.69450434956346      0.15853281007889
  N   0.48501460213027      0.48005583300736      0.26395053721131
  C   -0.43927041340988      1.40743848776692      0.73836812853244
  N   -1.39788441183290      1.10175642675358      1.53880891423243
  N   -0.42645855163092      2.68233350230417      0.22204379546548
  C   0.60328939620124      3.32982700968347     -0.54756818249444
  C   1.48478755887375      4.23216097041321      0.32192062284074
  O   0.98978808185553      4.78944371013749      1.27432952094697
  C   2.91712029134891      4.50459788196823     -0.08758787970815
  C   3.90589042719742      3.61750598038340      0.71183584412326
  C   3.63014349353951      2.17903386876580      0.42685775806369
  N   2.39190644466657      1.75519363608560      0.79758297854156
  C   4.53078980885375      1.40393269113999     -0.34284551968194
  O   5.66267595296964      1.70891144414416     -0.74527762934282
  N   4.03487028937005      0.10488631570619     -0.64127452068575
  H   0.20718756034810     -0.47364808635194      0.43300471516366
  H   -1.26785581803890      0.16147902873069      1.89606971534635
  H   -0.93066216106111      3.31161971756623      0.82964854407677
  H   0.12436055946813      3.99771525076304     -1.27800903865902
  H   1.19048689295279      2.61439205926217     -1.11569016846645
  H   3.05503600457961      4.30854837328123     -1.15379934731096
  H   3.11296053799376      5.55965699302026      0.11448952223394
  H   3.76431915992781      3.83719643862576      1.77471288848006
  H   4.92832743662541      3.86724922011295      0.43066449774882
  H   4.57805210356253     -0.37668144056203     -1.34078194178772
