22
Coordinates from ORCA-job 14809optt
  Br  5.96632649787694      0.50161471410619     -0.48344445798849
  C   4.62152716117969      1.48870768987241      0.41854456071650
  C   4.36358977845848      1.16407412977608      1.74198125947143
  N   5.08812391976598      0.30466332141704      2.51825102012569
  C   5.68450957133147      0.88697376096898      3.75258647265253
  N   5.02705572711367      0.98846589481883      4.82040614597928
  N   7.03342753976086      1.18284557424881      3.61493908983945
  C   7.34872225609974      2.08642830087077      2.73060342395261
  N   6.44804856441319      2.80106706256669      2.06196656033508
  C   6.72003586953170      3.39881104023083      0.89132578830878
  N   5.80307752952836      3.57282451043554     -0.02025852426341
  C   4.63252085131792      2.94522104069336      0.35634723033637
  N   3.63101863751264      3.60387431743047      0.88439979149940
  C   2.86347144255308      2.91711495757364      1.72801179497925
  O   3.40655713717303      1.82033159734153      2.38041374637330
  C   1.57083507194276      3.33263918702669      2.14718195590560
  O   0.85372534082921      2.75098273789995      2.95807167020071
  H   5.83157225485833     -0.10306202223501      1.96292938171770
  H   4.08041775049043      0.64370056817711      4.68014089436412
  H   8.42080893105864      2.21622699434225      2.53195873357347
  H   7.73408581902040      3.73789613988109      0.64981203415332
  H   1.25154234818341      4.26059848255674      1.64483142776727
