23
Coordinates from ORCA-job 14803optt
  Br  1.41491247861873     -1.83839871720097      1.68229315241782
  C   2.62446946046778     -0.69613110860488      0.75514753791276
  C   2.38368281762341      0.65123511612809      0.68842388393105
  N   1.27999814691172      1.26302989121895      1.36254112446038
  C   0.31938848569818      1.75955189585745      0.42278254972321
  N   -0.78373182612131      1.18551048243940      0.15172380912308
  N   0.69631471406728      2.92512068685352     -0.17701831377375
  C   2.00099355899353      3.48719788011918     -0.17093993936933
  N   3.14865515518478      2.81279574024817     -0.20024816258709
  C   3.31169126304974      1.50183164336297     -0.02498523113464
  N   4.47933803706800      0.96123972867423     -0.47390855602523
  C   4.65574565916440     -0.34408531746561     -0.37958025874853
  C   5.95155531637198     -0.81113384139522     -0.94496676424354
  O   6.31559166263216     -1.95854509920575     -0.99993993640219
  C   3.76550405962253     -1.25700093868650      0.18077218332109
  C   2.01227714732068      4.88902311494069     -0.30389985074288
  C   1.97325058182445      6.09164211169699     -0.44775121165145
  H   1.64944692196303      2.06337667711413      1.87292361812803
  H   -0.87502861052532      0.37092104790742      0.75148560591123
  H   0.00067051931794      3.36450747333702     -0.76217752694044
  H   6.57519107908292      0.01740341071997     -1.32774182859343
  H   3.97969358309287     -2.31389768293768      0.19391206311967
  H   1.96038978857047      7.14880580487841     -0.54584794783582
