24
Coordinates from ORCA-job 14808optt
  Br  0.44760481392859     -3.45334106187750      0.93008055354451
  C   1.99276438199073     -4.23583005079326      0.17160677643140
  C   3.20792900369339     -3.67667525152275      0.22328615354864
  N   3.62636603647481     -2.64787984742829      1.09846404727827
  C   4.19902036293219     -3.16103659229193      2.33452982439520
  N   4.78491255391806     -2.38923923295103      3.16413749833362
  N   3.98649857195685     -4.50442798107607      2.50225422232519
  C   4.97575088541796     -5.34887594720643      2.47826635688629
  N   4.90409915568079     -6.68273720371474      2.50039111579454
  C   3.79874999943202     -7.39495016185492      2.19016968839553
  C   3.65243352221731     -8.68229916746565      2.81542848175239
  O   2.69841241643739     -9.44250781999140      2.66023230679241
  C   2.72046503275739     -6.95963858329200      1.30742954594398
  C   2.89665339355993     -6.24339207978326      0.19513725476918
  O   1.80964792348436     -5.48857893893452     -0.32573932217919
  C   4.16398129002707     -5.78118040492642     -0.37743555491255
  C   4.28874317357078     -4.45216651155913     -0.40314040703953
  H   2.94022578201804     -1.92522644624327      1.26966238192648
  H   4.81574757926057     -1.44457359690672      2.78412018446786
  H   5.99978246353726     -4.95758118050803      2.44894225092773
  H   4.48520019424867     -8.94728588782466      3.49227398913486
  H   1.70478829883737     -7.17913175985539      1.62171959023502
  H   4.94632847832501     -6.47347738634429     -0.65738358863454
  H   5.17689468629338     -3.92696690564821     -0.73143335011736
