22
Coordinates from ORCA-job 14815optt
  Br  0.92193740475068     -0.81905250830681     -1.23287591432804
  C   2.88176166614254      0.43370149249579     -0.31112504518972
  C   3.49511068385683      1.46605601355051     -0.92029034959261
  N   2.95994777729556      2.00840964874237     -2.12938613557906
  C   1.66323533379272      2.49811581792936     -2.04643584343417
  N   0.77141988709806      2.55901215224375     -2.94082386752994
  N   1.36598175056144      3.01146861568396     -0.74381252433925
  C   0.43205070846551      2.38436242931117      0.02344836653695
  N   0.35771537983297      2.34735553284678      1.29402071120398
  C   1.12756961079042      2.81690510886520      2.31631283240507
  O   0.90478229831490      3.75733359856607      3.01139229141185
  O   2.17543825053468      1.93540254732937      2.69786900066889
  C   3.00763139392145      1.63449185504946      1.65970569468314
  N   2.79984118741451      0.42664037930038      1.05799113662735
  N   3.80548840280000      2.51761773660868      1.19920879949930
  C   4.35346639306806      2.33446662438762     -0.08266274069344
  O   5.34271602698651      2.92674260547130     -0.45483269626628
  H   3.23826390721027      1.64715779721451     -3.02818374204610
  H   1.04824508919356      2.02297309948756     -3.75989205126331
  H   2.14940627767161      3.40666056902750     -0.23848277541353
  H   -0.31351812058278      1.84866764360781     -0.55628360211136
  H   2.14450869088044     -0.21948875941241      1.47913845475028
