24
Coordinates from ORCA-job 14827optt
  Br  1.33780279923281      0.18909721363644      0.56258454124111
  C   3.11322688144338      0.53175749217316      0.03961675130460
  C   3.56467682756564      1.80521124987330     -0.14528389718663
  N   2.77237025212722      2.92686376167630      0.14347896988245
  C   2.69844241193089      3.41182853564474      1.46430473993479
  N   2.70663078108491      2.72044881545476      2.53373649581806
  N   2.53801654894210      4.78156387964795      1.54612332710005
  C   2.91333768366244      5.82482805701730      0.63960804895582
  O   2.31889740209391      6.88533399347800      0.76052894659781
  N   3.84910635187681      5.52475919616979     -0.28315042777557
  C   4.91781009063633      4.77831009807158      0.04177487463340
  S   5.55521018258303      3.63357530752425     -1.11885531704784
  C   4.90234810496735      2.02691494176736     -0.66591843669932
  C   5.67715059998655      0.94103791046051     -0.86026221625934
  N   5.21138136052237     -0.32760149211892     -0.63580469020637
  C   3.93399232698565     -0.64953985185912     -0.20647647726878
  N   3.50752100499163     -1.84912731581006     -0.03623004535925
  H   2.93737004110884      3.68947824708889     -0.50912335050392
  H   2.72075896939534      1.72664604362759      2.33468433430921
  H   2.09125318839593      5.09908197774482      2.39106256621758
  H   5.25899446780554      4.65905171175618      1.06839328803250
  H   6.69933404876596      1.01660766757690     -1.20510236263955
  H   5.83515707407634     -1.10217764455086     -0.79421541876148
  H   4.22721059981898     -2.52994979605090     -0.26947424431932
