24
Coordinates from ORCA-job 14828optt
  Br  1.45648809907528     -0.65697665358270     -2.42772399356693
  C   2.71522981315974     -0.00342599896556     -1.13910436298783
  C   3.44047801908702      1.14130417577001     -1.44704328686534
  N   2.81694472592220      2.30166510834756     -2.00468989209569
  C   1.74670537391961      2.85142389431814     -1.29407373310709
  N   0.64990573695150      3.29020819373311     -1.74898215960308
  N   2.03152043505507      2.94802163688700      0.09208885984692
  C   1.35782708404548      2.20817549675893      1.02920321112253
  O   0.36793245496803      1.56090502784477      0.87285113006480
  O   1.98866356632303      2.34997604322124      2.25161213510437
  C   2.19093688880064      1.19168771333656      2.98151645752022
  C   2.87750719502582      0.15696894158407      2.49728769178562
  C   3.43363724812425      0.17844389701995      1.13523411637778
  C   2.77624598165198     -0.55162594988040      0.12305828842468
  C   4.32717434794352      1.23798691297925      0.76288047470716
  N   4.99219089312672      2.06219852883874      1.48625650574904
  O   4.49944109964903      1.42365715786627     -0.60520270068280
  H   2.69625305117643      2.31559526408536     -3.00622818195832
  H   0.55870083603191      3.04263590743005     -2.73257736632138
  H   2.99463423006468      3.14877014984015      0.34401477767001
  H   1.77574488343411      1.23730543735548      3.97976197857852
  H   2.94637441550308     -0.72462116338353      3.12958272329508
  H   2.17042607934771     -1.41327372848388      0.37647291917457
  H   4.84303754161308      1.82999400707941      2.46480440776716
