23
Coordinates from ORCA-job 14836optt
  Br  1.34945416493309     -0.09863845890293      0.49420679785634
  C   3.21399318062741     -0.23437494655780      0.63630612172412
  C   3.92597133165841     -1.34410306522784      0.44831965980459
  N   5.33449550983634     -1.15267788454861      0.41941518239999
  C   5.68917883416597      0.06530106502277     -0.11658850619828
  N   5.00909044793849      1.13457861642585      0.00286348611980
  O   3.86113882119617      0.94865616241201      0.85879598854221
  C   5.92930958373956     -2.38851614224021     -0.03428741704878
  C   4.90486321628854     -3.31125295066567     -0.22921021604773
  C   3.63058690080359     -2.75510142076997      0.06112902528006
  O   2.49723751138408     -3.25149046365457      0.03311004234438
  N   7.23887533070308     -2.55818083605833     -0.14732467266232
  C   8.12895231866795     -1.71775652085096      0.30929227436767
  N   9.47865656061175     -1.88291810544902     -0.07436466426320
  C   10.47311318448404     -1.58512632989117      0.92518276553295
  C   10.55583376979380     -2.55232198466463      2.04582841875507
  N   10.66453345265417     -3.33260608632663      2.87930320144887
  H   6.59186681319198      0.11967865481240     -0.71339100320991
  H   5.07490898001658     -4.33812997103515     -0.50878279382211
  H   7.92623075631537     -0.83388491074477      0.91025068555268
  H   9.60115344065209     -2.79060765259290     -0.50770173170932
  H   10.26473597679336     -0.60012492984886      1.34699446864972
  H   11.46181991354402     -1.53640183864294      0.46665288658320
