23
Coordinates from ORCA-job 14837optt
  Br  0.96279876032555     -0.07822526685306     -0.44576720605352
  C   2.71853961123358     -0.20171725317081      0.21261009307828
  C   3.47075561706032     -1.31846429315915      0.23297291314006
  N   4.85925202212942     -1.07566443295824      0.43504358535036
  C   5.30056250091820      0.12020237905916     -0.07650153297879
  N   4.58884831794027      1.17630043949746     -0.14653586609329
  O   3.32667159164577      0.99210677723132      0.52686570838959
  C   5.54132237361105     -2.31693340969290      0.36059386348184
  C   6.98292794010182     -2.42162461763446      0.60744235253046
  N   7.81337248555202     -2.24855998855055     -0.62191369334408
  C   7.45871013945562     -2.28158638038951     -1.90801834951300
  N   8.54080651608938     -2.14317823615498     -2.64223427712342
  N   9.55711442063127     -2.02901208292826     -1.77244662667873
  N   9.13160818543896     -2.09194419816151     -0.56110217727249
  C   4.59895920019618     -3.29949944256872      0.14211742081960
  C   3.28042362023614     -2.75133435704873      0.02561789297745
  N   2.10443826979501     -3.31247244859985     -0.17587380043803
  H   6.29975761898189      0.17107738655062     -0.49486550178092
  H   7.23629851430560     -3.40704420889607      0.99955115376065
  H   7.34579393487464     -1.66460220817321      1.30575085004537
  H   6.44295294149307     -2.40215262059823     -2.24425979061956
  H   4.81750542363011     -4.35837145005041      0.11568714036201
  H   2.23657999435392     -4.31830008674981     -0.27073415203981
