20
Coordinates from ORCA-job 14839optt
  Br  1.21448661282070      0.13562976394698      0.43809070706211
  C   2.96302537243908      0.03225480765775     -0.48170777293485
  C   3.69597662583509     -1.14543384988865     -0.36992250286083
  N   5.08511560683210     -0.98168487724654     -0.07474229238293
  C   5.42679026965499      0.16430013110320      0.61518668666668
  N   4.74781496201473      1.23433025008612      0.57528980220970
  O   3.68520033722884      1.18628504050642     -0.39986914459099
  C   5.69930862353830     -2.20617539426720      0.03430123078399
  N   4.72663146414327     -3.11272478946700     -0.20122525490825
  C   3.43934896249589     -2.53410490678362     -0.45739174149847
  O   2.44978009496741     -3.21194506193637     -0.70259443720537
  N   6.92150820461309     -2.53725495117818      0.34310313016499
  C   7.96623248152664     -1.69407016819608      0.21296438401868
  N   9.11663212022401     -1.92804539705597      0.80919590128458
  O   9.94782324952995     -0.90283722152841      0.35026880092229
  C   9.21153259031065     -0.16262333041618     -0.46072918829564
  N   8.00344308273455     -0.55976566317189     -0.60718957370886
  H   6.28868683011177      0.12800076073943      1.26902721701813
  H   4.91312187408388     -4.09929404071456     -0.25878517247667
  H   9.68654063489493      0.69215889781079     -0.91927077926831
