23
Coordinates from ORCA-job 14841optt
  Br  1.45846007048446      0.75777979683910     -0.27550553260841
  C   3.23680200030589      0.16648859317550     -0.37924821939245
  C   3.69262612996406     -1.09054682118446     -0.26519010256364
  N   5.10004264691284     -1.18837904327996     -0.21304580634997
  C   5.70023420645009     -0.11903143018253      0.39817218065427
  N   5.24090632979944      1.06993562276379      0.39706645384427
  O   4.13478883144326      1.17037658749210     -0.54349878922090
  C   5.80475573108075     -2.42835266699966     -0.32256539192169
  N   7.11254156703752     -2.47353264867902     -0.44453210381379
  C   5.01535475606852     -3.60356507076305     -0.24503955228738
  N   5.45208305871849     -4.83295473780329     -0.34489907416952
  N   3.61268949214204     -3.46876513628342     -0.03426852764347
  C   2.91163488966939     -4.72595328420411      0.10732390834117
  C   3.06171449439124     -5.58281756280963     -1.13944562740692
  O   2.83272508004910     -5.18170308191846     -2.24661319441882
  C   2.88858354970703     -2.31466311357573     -0.06023254274338
  O   1.67492144375915     -2.28059258292004      0.08103498729159
  H   6.58998506099393     -0.32050315003671      0.98346690730271
  H   7.49122863816514     -1.55496629740755     -0.65805592379993
  H   6.45467462839906     -4.78528811974465     -0.50917284548997
  H   1.85571427661401     -4.50081854867714      0.25546757325388
  H   3.31590277481286     -5.27111804969348      0.95960238233649
  H   3.32563034303163     -6.63902925410751     -0.95282115919412
