19
Coordinates from ORCA-job 14845optt
  Br  0.93577328425135     -0.16215401185147      0.03222104715413
  C   2.65996986930419     -0.46392635084228      0.93491460821298
  C   3.54729434812723     -1.37886052904929      0.37207949603388
  N   4.91072839114303     -0.97299010839702      0.30132123629367
  C   5.13537393022469      0.39091006094351      0.23982734814066
  N   4.32022435287947      1.25072706720171      0.69055088993081
  O   3.22676907430394      0.67337031658465      1.42970568512435
  C   5.64751840825384     -1.95661961824610     -0.30018045711426
  O   4.83264340955506     -2.96401530740486     -0.58243861589559
  C   3.45988348645438     -2.65521374689886     -0.19782497652835
  O   2.59832980712099     -3.47147138993540     -0.40265710404830
  N   6.89381283906623     -2.02107957149891     -0.63210607840625
  C   7.87185378922887     -1.26646947163261     -0.07453028686952
  N   7.76787297659215     -0.56957992018643      1.04694006996296
  S   9.22491529768078      0.09119429572504      1.40412824997047
  C   9.94595849037590     -0.58969602640386      0.01221650874183
  N   9.11995134198631     -1.28844681472066     -0.68977049219841
  H   6.02037838842855      0.74167761940428     -0.27190878506848
  H   10.98574851502275     -0.44735649279140     -0.24948834343658
