21
Coordinates from ORCA-job 14842optt
  Br  1.25885389192535      0.13858433500840     -0.54058530678361
  C   2.95083432009111     -0.02944490988513      0.50368912471403
  C   3.62423690464570     -1.23898892178758      0.41334748137381
  N   5.03849247433511     -1.16650014520617      0.38530663592444
  C   5.53517236143890     -0.05520282051821     -0.23898250535092
  N   4.93133129467011      1.06431398619986     -0.30859235086154
  O   3.72587451532829      1.08222048299900      0.50795138431338
  C   5.54663808647034     -2.50111733273612      0.22887901817908
  N   6.78534767503344     -2.82231728404734      0.13862762923541
  N   4.47483779692261     -3.34823054511677      0.19800070297495
  C   3.37050676270824     -2.60391320307042      0.28561785778640
  N   2.12481641048979     -3.18904680768044      0.25079859545034
  C   1.89968635257912     -4.51723957879053      0.10899300160690
  N   0.68247845553360     -5.01199786418677      0.06025734039625
  C   0.78153400739543     -6.35765331931682     -0.08493191514121
  N   1.94618452788890     -6.93151091110421     -0.15140566654279
  S   3.10824657194696     -5.74864770329027     -0.02866568954194
  H   6.48787224362434     -0.14842468937638     -0.75055271946939
  H   7.37350368892488     -2.00276729039207      0.25874972642751
  H   1.31244671950816     -2.58678054062128      0.24426530247788
  H   -0.12289506146042     -6.95133493708074     -0.14076764716897
