22
Coordinates from ORCA-job 14840optt
  Br  0.54810664580726     -0.41041555953968      0.50250204248106
  C   3.01247522185601     -0.24267503857102     -0.24689257600876
  C   3.75740282048254     -1.34913147501309     -0.16876410733575
  N   5.18029408955252     -1.21576019820030     -0.17899587313113
  C   5.65069866647820      0.01951868751117      0.14120495254413
  N   4.97179906792442      1.09818927086299      0.14906904455772
  O   3.58835304041359      0.96274128785070     -0.27202098660391
  C   5.79840269585906     -2.46947010536058     -0.03961393228947
  N   7.05377366512306     -2.72263312790357      0.04311244983672
  C   4.70442672973241     -3.42457958123161     -0.00485478111427
  C   3.51190267247134     -2.76053998661278     -0.06085267823051
  N   2.22721603365594     -3.24082356674612     -0.03645032905405
  C   1.87383389331269     -4.54361199052425      0.02939448260946
  N   2.69909076670332     -5.56198791948242      0.03591798836241
  O   1.83898872157375     -6.66303710177862      0.09673490335889
  C   0.61138250912636     -6.17487814775134      0.12381902351812
  N   0.53592816971500     -4.89632867327826      0.08563518755445
  H   6.69086713618511      0.10617617036979      0.43862652768335
  H   7.61071746737533     -1.87434831961438     -0.02571197593291
  H   4.85401261370242     -4.48540844670665      0.07724904905054
  H   1.47536978175759     -2.54786149483926      0.03711892969844
  H   -0.20204240880803     -6.88213468344066      0.17677265844548
