22
Coordinates from ORCA-job 14857optt
  Br  0.91732257682103      0.14095565280389      0.90559944348202
  C   2.98309101623336      0.02299080757501     -0.29475483915862
  C   3.65826369426414      1.20952935255345     -0.22603696941708
  N   3.21155351056741      2.53618069770314     -0.20847865294191
  C   4.29497340838411      3.35942836699896     -0.00756848246738
  N   4.41202684401964      4.60528484046766      0.15438341687078
  O   5.42730546675863      2.56042808081830     -0.02308227578542
  C   5.03820026907390      1.26666222926081     -0.11180894843109
  C   5.82171352849189      0.12683784368418     -0.06166909500024
  C   7.27157434761991      0.08270625661566      0.04066300348952
  O   8.01996968690903      1.04212495291586      0.08282953280980
  N   7.75960528305144     -1.20425403977170      0.08251856904890
  C   7.03075876175353     -2.41459820734685      0.03396579812998
  N   7.61785819160060     -3.55503547237231      0.08055250557666
  N   5.67363899879925     -2.31699635461626     -0.06491735464983
  C   5.13551159965691     -1.12308167945764     -0.10496312479020
  N   3.75564104706813     -1.08126759393876     -0.21310542541019
  H   2.28209795472737      2.76835770553365      0.10655463600820
  H   3.50299644495672      5.05433480736040      0.11678497489594
  H   8.76463059066186     -1.26208182750469      0.15053641734627
  H   8.62451679279634     -3.43488096414634      0.15528442723276
  H   3.31874998578460     -1.99362545513644     -0.24528755683886
