23
Coordinates from ORCA-job 14854opt
  Br  2.36299045748107     -0.47570001786503      2.16440094411730
  C   3.78258833691431      0.20497756433480      1.11132271925175
  C   3.88807312485147      1.49089493271086      0.78048856113722
  N   5.09096039020238      1.94588332887317      0.25730468023916
  C   6.25761989929871      1.16253846349791      0.28713802854944
  N   7.41465143355451      1.58224870750185     -0.00761122043135
  O   6.10285056740581     -0.11271164062504      0.69728023257035
  C   4.79771336915068     -0.61093976113961      0.46245932459173
  C   4.58270413411938     -1.45847937438602     -0.57325360609854
  N   3.37213583015574     -1.85590008455324     -1.06638082217319
  C   2.38869910372958     -0.95952260196566     -1.12054312686468
  C   2.54271923400623      0.46218085364371     -1.25281730084145
  O   3.46792222075889      1.07788507780179     -1.78626299871283
  N   1.49243042755805      1.22542532149705     -0.60674746968789
  C   1.67165467620046      2.21465341693810      0.34765458129817
  N   0.76367574762571      2.95160656381670      0.83559992898182
  O   2.94120023833087      2.46210769216157      0.82469101341195
  H   4.98320205451183      2.51661500200583     -0.57145525450733
  H   7.38288639497929      2.58341352886438     -0.17489641890486
  H   5.46434478917699     -1.93967470780642     -0.99168406735657
  H   1.36790545205111     -1.33996162399774     -1.07390575965622
  H   0.65370996718311      0.69430380539569     -0.42035505682694
  H   -0.10463784924659      2.79415555329528      0.33357308791298
