21
Coordinates from ORCA-job 14851optt
  Br  2.49640094375367      2.73747580925685      0.40109276298098
  C   4.19934784498396      2.03186394925906     -0.19576616164264
  C   5.41312950054330      2.58758552589275      0.24980835826540
  N   6.45988563490666      1.58839045280096      0.21415012343674
  C   6.01507052815740      0.43766668948622      0.93388582637188
  N   4.86075228774147     -0.03873858407309      0.75294963558269
  O   4.17124006094642      0.66325449220272     -0.28458418480123
  C   7.14132238405909      1.21188144832308     -0.95295160147973
  O   7.54373210566503      0.09013714229118     -1.12430959200260
  S   7.45771185905426      2.43994820179567     -2.23850470682892
  C   7.47735341161644      3.89747214526605     -1.26907296765243
  C   8.34611327990026      3.91367356410460     -0.25635236114508
  N   8.05291184570357      4.55211013549928      0.94423216231842
  C   6.87747264184830      4.20240291102145      1.63420058017324
  O   6.85014803159552      4.30643259278493      2.83504859639229
  C   5.61722516476866      3.86874332107340      0.81160352927271
  O   4.83598669100283      4.82757263938579      0.73259878542434
  H   6.66847917105296     -0.02854139318375      1.66063409412644
  H   6.64097608717503      4.58067179435462     -1.32721591212017
  H   9.20316579513448      3.24509788880983     -0.25761078687757
  H   8.81557473039061      4.71089927364835      1.58916382020524
