22
Coordinates from ORCA-job 14867optt
  Br  1.01302016076061     -0.21548467258283     -0.76062633745463
  C   2.87102854988874     -0.02802484273423     -0.47636211285870
  C   3.48665709849549      1.14599392605269     -0.27644529828485
  N   4.88903958739436      1.21137831640656     -0.15834969958846
  C   5.49996366968245      2.40099796948753     -0.37145552721994
  N   4.96213799224347      3.53608545707769     -0.62422270949678
  O   3.54424853078939      3.54376429685397     -0.58703756108039
  C   2.83074118186507      2.46795706741239     -0.17640267474555
  N   1.65121659779256      2.62285848326133      0.25346878284727
  C   1.13027970089083      3.95877889679734      0.27445939838593
  C   0.66712395965041      4.47966836278652     -1.06562870575141
  O   0.75175099723795      3.90760141056943     -2.11185929425474
  C   5.73691016973129      0.11708685629937      0.30320953343531
  O   6.86419540534634      0.41912178186412      0.73272636779216
  C   5.24588139618158     -1.20872209657113      0.20850607616908
  N   5.88079874930054     -2.28325540305322      0.58965598470481
  S   3.68555509633166     -1.56169988278092     -0.58553155381039
  H   6.57897663779090      2.37630096462592     -0.31476548331231
  H   1.84621261892632      4.70342986731288      0.65038855419543
  H   0.25504423051884      3.99824867722128      0.93243522842034
  H   0.20595244584321      5.48959741777292     -1.00786447382548
  H   6.78126522333795     -1.97768285407960      0.96270150573330
