24
Coordinates from ORCA-job 14861optt
  Br  1.06836569099252      0.07583774339953      0.08051757754688
  C   2.97120003015955      0.03040705556752      0.03572258340602
  C   3.57925388067358     -1.19502604150358      0.05952303728504
  N   2.90583796813963     -2.42813051944661      0.11193956225880
  C   3.61030741105263     -3.52366843029743     -0.29853925979856
  N   4.87806994329765     -3.62889051694491     -0.36678935732259
  O   5.60010769540359     -2.50595396809594      0.08308273733859
  C   4.98454157787773     -1.26911563104909     -0.00685764696752
  C   5.74914090875225     -0.14445708194240     -0.08013913816614
  C   5.17455575822500      1.17119276805096     -0.07624297373271
  O   5.88651267190619      2.19499805916698     -0.09498136877013
  C   3.68244144935739      1.27570024496036     -0.04857691017155
  N   2.99222293357828      2.38646667571415     -0.09869014212703
  C   3.62912464906637      3.66603127433522     -0.24279183041564
  C   2.49057693691617      4.68735529864703     -0.39211195998868
  C   2.95469124862045      6.06331877018134     -0.55788402853155
  N   3.31575229719549      7.14478655426772     -0.68787492270085
  H   1.91123300841122     -2.40486606903902     -0.05178783629309
  H   3.04541437820441     -4.40058309028731     -0.58981932262983
  H   6.82758918270630     -0.22123825393896     -0.11408253131635
  H   4.28945349288317      3.71840183995718     -1.11356290216314
  H   4.25283355731359      3.93007439312180      0.61673801312433
  H   1.84587506006812      4.63925628400987      0.48688425185174
  H   1.87889826919849      4.41810264116549     -1.25467563171605
