24
Coordinates from ORCA-job 14864optt
  Br  1.12307110007336     -0.02921994496985     -0.28232676613302
  C   2.99111751199369      0.03908580466443     -0.09375762476282
  C   3.71551001671048     -1.10794309559586      0.03745469276628
  N   3.34230581930473     -2.43623529208740      0.05514043601848
  C   4.45624379713737     -3.25358502162943      0.18754527699392
  N   4.56387425929164     -4.51276091768894      0.23518408935243
  O   5.54338870311479     -2.44531523021417      0.27061155887783
  C   5.09785465497183     -1.12932903247026      0.18373872976646
  C   5.82366463774445      0.03410953697268      0.17516912546465
  N   7.16146688439753      0.13288583375222      0.28078209868577
  C   7.87771748104930      1.38489266850950      0.29235001016883
  N   7.47671889132468      2.39758421465997      1.06839837592270
  C   8.94393393201538      1.42851340514183     -0.60124901951702
  C   9.94867113470917      1.37242540323531     -1.30173103263725
  N   5.08598047131212      1.18203221755111      0.03044413239512
  C   3.68881481466321      1.30079188497469     -0.08749208769913
  N   3.09025661936792      2.43401173609594     -0.18570764068064
  H   2.39921955322706     -2.76689004544534     -0.04975036926949
  H   3.65372843435224     -4.95396574336144      0.16154928858241
  H   7.68681550594633     -0.71949707364614      0.15800343191762
  H   6.87636028162321      2.02874507392692      1.80543561672564
  H   10.54585780333157      1.49857814134495     -2.17570628495918
  H   5.62740779448176      2.04366307088331      0.11877123672478
  H   3.75801989785591      3.20042240539599     -0.16585727470436
