23
Coordinates from ORCA-job 14875optt
  Br  1.17376719530978     -0.09462878116832      0.36034673897633
  C   3.09889914382070     -0.06163410114268      0.16437769444277
  C   3.73508341141255      1.14784058112665      0.33653809386462
  N   3.09049374346663      2.35937501275136      0.64512675310328
  C   3.58657214020408      3.58512814471738      0.26807669380816
  N   2.96305544389688      4.69364375392884      0.24595321605322
  O   4.87827481962866      3.58332039679719     -0.11940016492633
  C   5.74222573648617      2.56320019790525      0.39383569997779
  C   5.14989069116666      1.20590815492024      0.21703645823125
  C   5.77310701192827      0.00677182000642     -0.03560373093594
  N   7.06347731204752     -0.42347296822531     -0.19234067190103
  C   8.25127646729847      0.24113302022577      0.03307546148668
  N   9.41703646381815     -0.23195459227074     -0.12367126780622
  N   7.08199167165198     -1.79397624900741     -0.49112821706307
  N   5.83013188136402     -2.20443826364829     -0.49149913878485
  C   5.00950746648465     -1.18366060680635     -0.21531241956441
  N   3.66111186285782     -1.22269639913375     -0.10606993552003
  H   2.09824066323629      2.31118439654406      0.81415779391516
  H   1.98211042446002      4.55333287166190      0.46767702628793
  H   5.94571828637664      2.78989344472268      1.44850351383717
  H   6.66784281174692      2.68007855729565     -0.16671149155945
  H   8.11673103200164      1.25668200184926      0.39750080105225
  H   9.34145431933544     -1.19403039304980     -0.45846890697528
