21
Coordinates from ORCA-job 14873optt
  Br  3.97422754996161     -0.29193783358823      2.46123465130272
  C   3.54823138693547      0.07228480549922      0.63022489653902
  C   2.62227612538441      1.06203173372241      0.32754300555699
  N   1.88404255322044      1.78351340513265      1.30665781045762
  C   0.55686679806950      1.38442140553387      1.46550991749354
  N   0.13171847518803      0.30231069248474      1.94089515803424
  O   -0.38300427952262      2.30453808443010      1.05920009085527
  C   -0.04292660470934      3.15328556975030      0.05204294150327
  C   0.76781036170264      3.08070854999681     -1.06170076267879
  N   0.65318246196594      4.29277273427421     -1.72887691020702
  C   -0.16736022243523      5.03748812835126     -1.04697587784855
  N   -0.61905674614022      4.39626005254105      0.06346810735572
  N   1.51963336561981      2.07843363898154     -1.63461158390578
  C   2.31983556095584      1.25322959914133     -1.05851688885120
  O   2.98097735416851      0.44680427736939     -1.92748856900446
  N   3.96423180095647     -0.54731717465437     -1.51603336651114
  N   4.17802502633546     -0.66510465358616     -0.24861327340201
  H   1.97086162307212      2.78380702108532      1.18902473980132
  H   0.92706419718266     -0.23886181009710      2.27562319809972
  H   -0.47824851046755      6.03832032199868     -1.30024624556274
  H   -1.29038827744397      4.71101145163297      0.74163896097224
