23
Coordinates from ORCA-job 14887optt
  Br  1.54279577467917     -0.62935526504293     -1.88469152152967
  C   2.60705921419609      0.25785744054927     -0.58493589999091
  C   3.25833234740332      1.40070958712480     -0.89720225087766
  N   3.03796183107860      2.17496951714677     -2.05597785501585
  C   1.89666743068034      2.90665160148351     -2.34085758606907
  N   1.50294262854239      3.27983076818383     -3.48470707259199
  O   1.21989821419533      3.39997249685148     -1.26307683065531
  C   0.67545595349872      2.57606985988850     -0.31189936913933
  C   0.70349507874890      2.93914931084536      0.96082367173173
  C   0.25297257695269      2.06396257425118      2.06658210764700
  N   -0.93199575114130      1.86758107435254      2.46472436816051
  S   1.58460563058853      1.28827285692168      2.99379839679473
  C   2.69862218992643      1.03303825683557      1.62513562178395
  N   3.42013852920605      2.07844706107752      1.33931308395253
  O   4.09848097152302      1.90331543970259      0.05749322985139
  C   2.49585170746085     -0.14870931529849      0.79625263919584
  N   2.05050641541062     -1.33068720769947      1.16004500032150
  H   3.53568380608011      1.88650542943546     -2.88500825388258
  H   2.10737139634086      2.90427994594104     -4.21044826667446
  H   0.23788582396120      1.65249307238815     -0.67634901498921
  H   1.27358974842710      3.81832613641544      1.23528958512534
  H   -1.57037002084260      2.42960804148355      1.90025558431804
  H   1.91504850308351     -1.34028868283741      2.16944063253347
