23
Coordinates from ORCA-job 14886optt
  Br  1.85895663118801      0.60152800178891      4.39376528436680
  C   3.74938693079863      1.17464604871339      3.34540071105275
  C   3.61360717594723      2.27827464934199      2.53529738084582
  N   2.42429345509667      2.50913239393968      1.79136666968235
  C   1.56641512711415      3.56899495694944      2.08417828809029
  N   0.30467026390761      3.56333305019764      2.02833362227409
  O   2.18489225867490      4.78133978873007      2.27527145238356
  C   2.86800271522227      5.05490074325442      3.42068920191327
  C   2.74191202021407      4.41784401908841      4.57917914458068
  C   3.86327953902064      4.44648681086766      5.55591440078027
  N   4.31807039702017      5.50050071223629      6.08995905455212
  C   4.36509240736294      3.03248861304203      5.66845285598646
  C   4.94217563478323      2.49682375031047      4.59937413843268
  O   5.47721218648311      3.24534948716213      3.60286748658548
  C   4.71884559265636      3.20031254252300      2.41819311796159
  O   5.04396419769008      3.91382634123623      1.51008799537583
  O   4.80618015381142      1.17541125590447      4.24044892458436
  H   1.89954949965966      1.65153063585537      1.67992533505738
  H   -0.03947332155918      2.62071250341508      1.86227346735298
  H   3.61012989634703      5.82529413666310      3.25513329944509
  H   2.04350940674187      3.58916321996086      4.66114429057342
  H   5.14599544634290      5.27192921840939      6.64003006754726
  H   3.90133238547614      2.36117712040989      6.37971381057538
