17
Coordinates from ORCA-job 1488optt
  C   0.92219177186965      0.16768374933221     -0.44123944377332
  C   2.38060800089153      0.09627002211368     -0.03993986199701
  C   2.91842410382156     -1.16265305218374      0.17104022275733
  C   3.12433508973591      1.30200975939359      0.09709780212963
  C   2.47945557884631      2.64158005518272     -0.17794176331249
  N   4.41420319641670      1.23820784375210      0.44695677360080
  N   5.05236742165582      2.51811031296694      0.52615439856419
  H   0.77176127680414      0.66963789194490     -1.40416130548461
  H   0.30436890494407      0.69927411940569      0.29243249525292
  H   0.51906276119632     -0.84223913216270     -0.53428844693143
  H   2.30572556723396     -2.04989036583533      0.06062158571092
  H   3.95359890715410     -1.28228908519052      0.45754983299211
  H   1.39633835617837      2.56828090558461     -0.25125135245769
  H   2.83091344076095      3.09528442878261     -1.11780113411212
  H   2.72588358979346      3.35506748642333      0.61435976888545
  H   6.03654443816525      2.30748216072032      0.63936360391804
  H   4.98321759453184      3.00818289976958     -0.36995317574272
