27
Coordinates from ORCA-job 14895optt
  Br  0.00557100415203     -0.52791930366810      1.41349309489823
  C   1.64201319055547     -0.46777142433727      0.41571855486539
  C   2.68745580133077     -1.29021186506616      0.71845343253825
  N   2.53729407429178     -2.43178020182283      1.58843909059177
  C   2.03810185883238     -3.57058719337215      0.97032259550362
  N   2.47705471751759     -4.76305766891057      1.02970323778905
  O   0.92776527474154     -3.28492282978684      0.26744256832402
  C   0.76691166785981     -3.87897566678983     -1.00442522260934
  C   -0.15863520073947     -2.96696068133470     -1.78092286412887
  O   0.48472017950104     -1.70588783002880     -1.89489244875380
  C   -0.28853808638465     -0.60638054756532     -1.90002008647570
  O   -1.47172313949012     -0.64666160421302     -2.12751373605905
  C   0.49049276411007      0.66082379011306     -1.54829293468270
  C   1.70814966636687      0.43575324632619     -0.69985597914767
  C   3.02432808208162      0.57188522735296     -1.22250233892163
  C   4.05968717931127     -0.18256494406086     -0.74344339139295
  N   3.91444844268098     -1.19474464310106      0.16965691709646
  H   3.43057764108403     -2.62951879663969      2.02283812866347
  H   3.35855237592085     -4.79181841939706      1.53258059861207
  H   0.33132997546372     -4.87820557908649     -0.91708845674075
  H   1.73976593944488     -3.96150753951454     -1.49410761651224
  H   -1.10579095471547     -2.83798175147595     -1.25561321626287
  H   -0.35923995788452     -3.38162200097857     -2.77253316241333
  H   -0.26330779731082      1.30932586855014     -1.09288423558393
  H   0.78539842437038      1.12826947892283     -2.49269864786527
  H   3.21276149820003      1.27477551690091     -2.03052863772864
  H   5.06385537870788     -0.03975263701624     -1.13032524360359
