21
Coordinates from ORCA-job 14898optt
  Br  2.24565383053672      0.57121877396867      2.06523295564185
  C   3.73288790177122      0.32737734353133      0.88290304565685
  C   4.57218939398722      1.39715158958640      0.49867275370972
  N   5.85757275181108      0.94799889265883      0.05788749591610
  C   6.68915416920743      2.02213684482913     -0.10769675753877
  N   6.68201557290797      2.79992813287275      0.91581602164920
  O   6.40151157173237      4.09681978892309      0.42946316070100
  C   5.09395138911207      4.05942871482392     -0.01139913814810
  O   4.67202624829159      5.01457416831963     -0.57622896929821
  C   4.17133829845839      2.80044156671878      0.28280211534816
  N   2.94735235066062      3.19566992786100      0.27039370361233
  C   6.13566886316931     -0.30399402663844     -0.54867510819910
  O   7.19077602719089     -0.40802874753547     -1.15805127837485
  C   5.13731900961805     -1.29371645863718     -0.28611475066377
  C   5.35702487009907     -2.64413327932658     -0.73600345700532
  O   4.61252062507957     -3.59087388036736     -0.52813362082179
  C   4.02444295275610     -0.96058445983025      0.51299024285390
  H   7.00710140597521      2.31500711385957     -1.10860249804126
  H   2.30511997085776      2.42092578967522      0.40701358494279
  H   6.29381354744740     -2.78600851001335     -1.30095118974780
  H   3.38255924932990     -1.77533928527968      0.82568168780709
