25
Coordinates from ORCA-job 14894optt
  Br  1.21532391531977      0.60632249950708     -1.13892154279634
  C   2.85814490748127      0.04060266838283     -0.23362542356801
  C   3.50963912339849     -1.12102353589223     -0.65044651009030
  N   2.76987289442228     -2.27268290085207     -1.09653042502515
  C   2.40150430341887     -3.10018038235056     -0.00114368853622
  N   1.34433054081606     -2.99257729759156      0.66839856133508
  O   3.30767251219390     -4.07561253143328      0.32230951815619
  C   4.44035574739727     -3.60223013299217      1.06348605102420
  C   5.66748982931965     -3.33646564821997      0.21148587191988
  O   5.42409307263253     -2.43567841558592     -0.85551832539524
  C   4.88037145994292     -1.22325202400515     -0.50343730134382
  C   5.69119451821613     -0.16880810770471     -0.00803631697996
  C   7.10464560629171     -0.23904870501771      0.20171103620548
  O   7.84141804431009     -1.21243049267120      0.03914095004870
  C   5.03188782714053      1.06452393676588      0.37571946291135
  O   5.56860286340324      2.06043563083053      0.85285729953891
  N   3.64705094761824      1.08318659178556      0.20930414153672
  H   3.39553338242453     -2.80768074295028     -1.68982833949381
  H   0.78092057693104     -2.25017056852352      0.25480036821869
  H   4.68683198228313     -4.38601123403701      1.78213208054432
  H   4.15232292010622     -2.70875665201930      1.62379080049616
  H   6.00135552589616     -4.25795385792772     -0.26628955120228
  H   6.47427088486040     -2.95329949676406      0.84472681324592
  H   7.52539952344922      0.71229994361054      0.56662431189300
  H   3.20176709072622      1.90949145565606      0.58029015735653
