23
Coordinates from ORCA-job 14892optt
  Br  2.52674460695823     -1.79460825184181     -3.09897755809238
  C   3.13565993165716     -0.88674210600568     -1.52563094835452
  C   2.36901364642081      0.15190135187182     -0.97217279062432
  N   1.25518549769892      0.72790035905488     -1.57124893113690
  C   0.91103321279273      2.05010221713731     -1.28640165132114
  N   -0.24252351795780      2.55711541077380     -1.41987873323365
  O   1.97557999869891      2.80443451926394     -0.92710433297248
  C   1.91525576647299      3.42151825571467      0.32115260970262
  C   2.78060060744631      3.31021786010221      1.35220767284857
  N   3.98971080139162      2.74403732398265      1.68713185272064
  C   4.53471192469866      1.59122769258376      1.35401912813381
  C   4.00056755423897      0.54113502894645      0.58394616230440
  N   2.71910731698713      0.69617890013979      0.15294119194364
  C   4.71424343085737     -0.60363595021233      0.08289196714943
  N   4.24751769276174     -1.30209027095375     -0.94164010539286
  C   5.96748703743566     -0.99934640042972      0.64954218887111
  C   7.01889053381603     -1.29135373732690      1.15360456549822
  H   0.72834494722754      0.22355084903292     -2.26421313764510
  H   -0.91981169445969      1.83433010883919     -1.64648849951062
  H   1.06680568776512      4.08541189275189      0.42244644168905
  H   2.46228738636185      4.00133384323988      2.13555695910352
  H   5.54570816170783      1.43897846945246      1.72817812013793
  H   7.95087946902188     -1.55159736611746      1.59213782818104
