23
Coordinates from ORCA-job 14893opt
  Br  0.82207646466365      0.54050143442113     -1.44305423922683
  C   2.88578222698284      0.16109903982073     -0.10805845558110
  C   3.53123024563853     -1.02233698864311     -0.03976591328110
  N   3.02061857710682     -2.33211098540881      0.06731612912590
  C   1.73158508615002     -2.59922430900571      0.50555179269783
  N   0.86687556284455     -1.82511960781617      0.98190911037645
  O   1.43025349467763     -3.92648805835859      0.34864236374868
  C   0.11423266304861     -4.27774401389325      0.69048848592647
  C   -0.08883930154623     -4.40958328501604      2.14477798526384
  N   -0.28625208984373     -4.58723509603114      3.25878629010791
  C   4.15115071661932     -3.24574506419465      0.01555944565308
  N   4.15706673569385     -4.51268768850598      0.07071406736636
  N   5.30503393624199     -2.48256655037443     -0.10841811334564
  C   4.95679259070006     -1.22707645099479     -0.13621776297540
  C   5.85281975476220     -0.11802522460017     -0.25555144540738
  C   5.40304329787846      1.15321742566088     -0.29313865564357
  S   3.75130198514574      1.61786990041449     -0.24190809328673
  H   1.16042385448631     -0.85329989650494      0.98810509179738
  H   -0.06198810320843     -5.25208572577173      0.23745095320539
  H   -0.59503855344545     -3.54302785752630      0.30978914470060
  H   3.21970401980928     -4.88213758519397      0.14611191933967
  H   6.91279172361934     -0.33120420944360     -0.31128359518303
  H   6.09133511197433      1.98701079696637     -0.37080650537876
