21
Coordinates from ORCA-job 14896optt
  Br  2.65753340759872     -0.96671087356819      2.34443312984924
  C   3.41126620961188      0.43160677886663      1.25656688786305
  C   2.62298976948834      1.40151085208279      0.74189645011895
  N   1.26005288277862      1.57209033894132      1.15516209836136
  C   0.29618689753765      1.65045738404938      0.17206323779100
  N   0.16492144065038      0.97449593384830     -0.87940734347757
  O   -0.68224775328397      2.60701430069677      0.45791648799410
  C   -0.66704904704869      3.77285970928610     -0.27135380551403
  N   0.31369878521023      4.51348546362947     -0.52510485253058
  C   1.58046024549350      4.13018599379987      0.03580152277506
  N   1.86871920789005      4.44264151473754      1.25419397407727
  C   2.39818081327010      3.33468230358913     -0.82590018058453
  C   3.07496630539315      2.19139939716561     -0.39290519464186
  N   3.83301659882574      1.51391074225816     -1.33615744723822
  N   4.65577596562441      0.63004013621107     -1.13869755137633
  S   5.01392879695395      0.28414215791902      0.67463700301076
  H   1.18040120512003      2.33824226577159      1.81593673836424
  H   0.93368406015286      0.31182620623962     -0.96664694462058
  H   -1.67113139738102      4.04099507757688     -0.58495852566918
  H   1.08977549461052      4.95806405334755      1.66302721489022
  H   2.33787011150352      3.51506026355137     -1.89150289944237
