12
Coordinates from ORCA-job 148opt
  C   -3.07656173162814     -0.18489323305123      0.00634092614997
  C   -2.43872756414706      1.08899238157938     -0.09512087612691
  C   -1.01404524088695      1.10946692362802      0.00631834791308
  C   -0.28443858552149     -0.05344092948369      0.00633648851704
  C   -0.92227269001935     -1.32732396684908     -0.09517066561894
  C   -2.34695443354828     -1.34780021210448      0.00630084515078
  H   -2.86925243049644     -2.29905775529055      0.07331944625426
  H   -4.16025317687382     -0.24109012575384      0.07329923571252
  H   -3.01367821908443      2.00548222445647     -0.06413710358763
  H   -0.49174348748427      2.06072261439430      0.07334239151441
  H   0.79925240460451      0.00275347414118      0.07329665081325
  H   -0.34732484491427     -2.24381139566648     -0.06412568669182
