23
Coordinates from ORCA-job 14908optt
  Br  2.99822551763537     -1.20911279634723     -2.10576402089757
  C   4.07975921032173     -0.43907759749502     -0.75471344220863
  C   4.33415146604762      0.86938040174678     -0.62682554036624
  N   4.93342212521997      1.33228812400125      0.55882541764773
  C   4.50320839972814      0.73566787973437      1.74898754018646
  N   4.21048927086698     -0.48694143939696      1.90364718875645
  S   4.53542735948054     -1.50208721523885      0.55915833298997
  C   5.71631845697750      2.52590856481427      0.66503358901842
  C   5.89420174237882      3.29956261658559     -0.50007597071603
  C   5.18776832270672      3.13807780913715     -1.68250604795476
  S   3.78765115572006      2.18887688467692     -1.71376598567132
  O   2.67145324987269      2.78508545495087     -1.01370269380162
  O   3.56191395800861      1.70151359562162     -3.05298034685484
  N   6.21233030274281      2.72815073695239      1.86008042315522
  C   6.86886761870045      3.96334846548798      2.09796885905621
  C   8.29900765044831      4.11942631808593      1.63556319115016
  O   8.92190889136109      3.37127938245933      0.93780057936762
  H   4.41263778621338      1.42255903163637      2.58093863809910
  H   6.71656009038755      4.00150853357839     -0.49047797698928
  H   5.46617528618079      3.57702765339138     -2.62809344172443
  H   6.90712810919358      4.16157250310444      3.17844474365059
  H   6.34784712615608      4.83877885149495      1.66120836768520
  H   8.76954690365112      5.05820624101802      2.01124859642161
