20
Coordinates from ORCA-job 14907optt
  Br  1.05211234423373      0.16605938314872     -0.55290187685447
  C   2.91315199442384     -0.08766905267289     -0.44731189701775
  C   3.52467382741469     -1.21819244739180     -0.07716299111529
  N   4.94003274903487     -1.21683036464383     -0.03217307045239
  C   5.60677727576936     -0.05702495241731      0.35750965157634
  N   5.22095491949553      1.13205743076297      0.15747482019825
  S   3.84521246411780      1.35090672550659     -0.83018001530897
  C   5.64837239166066     -2.42531325155959     -0.05668131682718
  N   6.95100642705036     -2.34247350711309     -0.12499583499439
  C   7.63175147165616     -3.52239762441555     -0.18000536342930
  C   7.05617173758616     -4.75005857938744     -0.21283226982756
  C   5.61651591464145     -4.90367636457632     -0.15088773109511
  O   5.05715700996730     -5.99787600844941     -0.19397547408147
  C   4.87262530153392     -3.62909414788679     -0.00749610296403
  N   3.56589145248581     -3.65941014831131      0.21283571174765
  C   2.85348820536337     -2.50883770279503      0.33404787906843
  O   1.70187494150224     -2.48292244115654      0.73230866645124
  H   6.52745553521486     -0.24021096573263      0.89921367078482
  H   8.71118396019051     -3.41993582367240     -0.21846076536860
  H   7.65259007665732     -5.65010015723634     -0.28132569049022
