24
Coordinates from ORCA-job 14919optt
  Br  1.02173847513494     -0.34814255367487      1.45604326585650
  C   1.03462638400145      1.47939601901297      0.74952116449784
  C   2.29562125604903      2.19197093633368      0.87614998075744
  N   3.41061426804573      1.43760709690345      0.37949101660279
  C   3.26173338226645      0.78549178836896     -0.83529478503883
  N   4.08440479110641     -0.04447133280109     -1.34603946351979
  S   1.84627102884863      1.20838064709015     -1.84323138625083
  C   0.59960013613920      1.67106297362209     -0.63445682789319
  C   -0.34004511100430      2.60118831151020     -0.91473753211937
  C   -1.49345793261228      2.95885666238238     -0.01959528741926
  O   -1.44005055287108      4.39856996915411     -0.04141438496480
  C   -0.49884796746655      4.67964232567849     -0.98824921759325
  N   -0.10908606774254      3.71544837375805     -1.75386263390223
  N   0.21893264204275      5.84530590088597     -0.83756573700692
  C   1.19812628902170      5.62644775971166      0.00706060099759
  C   1.31220947645290      4.44677353728228      0.82032267520265
  C   2.39030348726749      3.58074638324029      0.75617293257684
  H   4.01387753385196      0.94883580032888      1.02711492929771
  H   4.90149985917883     -0.14311692492125     -0.74282902442882
  H   -1.38994933038023      2.59759082986789      1.00249816513556
  H   -2.44869324623051      2.63485939891041     -0.44133396506708
  H   1.98988838058101      6.37675504462528      0.01846444056959
  H   0.38724174061129      4.00185649894906      1.15746181803680
  H   3.35044107770770      3.95294455378088      0.40530925567307
