21
Coordinates from ORCA-job 14911optt
  Br  1.62890307902744     -0.03271495144515     -1.79132367840463
  C   2.88071887571486     -0.05113430005194     -0.31103769132805
  C   3.57023079247764     -1.22165346242634     -0.03027001797821
  N   4.94436833236610     -1.14568076049107      0.28997120115391
  C   5.71999523924326     -0.09778537404212     -0.16417055442221
  N   5.33689277838015      1.09420562976551     -0.38248562842294
  S   3.70431048494386      1.43646581588524      0.04685009382932
  C   5.44119486075247     -2.49323436893973      0.41473633406529
  N   6.65341578700826     -2.82286449220072      0.68595658241639
  N   4.40034761447555     -3.34451048472186      0.21966362802365
  C   3.30577962270515     -2.61070938633438     -0.02578484911578
  C   2.01677236035317     -3.26716534927802     -0.13934582141678
  C   1.82450528188107     -4.57805389556999     -0.37982344172980
  S   0.14192246574106     -5.00131029574019     -0.32879815729222
  C   -0.32651011749707     -3.31612307537503      0.04179669322472
  O   -1.45500593647824     -2.91641035453180      0.20954635990986
  N   0.82649248890347     -2.59078699339571      0.10014200118752
  H   6.75426016765913     -0.36174142743082     -0.37279770017713
  H   7.22196776741831     -2.00204726131899      0.86898930662021
  H   2.60736180169235     -5.29665517338027     -0.54814266584247
  H   0.78707625323191     -1.59509003897659      0.26832800569935
