23
Coordinates from ORCA-job 14912optt
  Br  0.93346272235010     -0.13774179332543      0.42847032075780
  C   2.67583823773699     -0.17696810594888     -0.46426404244189
  C   3.51440395133063     -1.26182843022899     -0.23408694752275
  N   4.91512301574838     -1.03761800024971     -0.19052093722697
  C   5.41975469198439      0.15939127214380      0.26924971183368
  N   4.87523326604778      1.30492113508012      0.16544354671718
  S   3.43028185793895      1.34777496326780     -0.77741627977176
  C   5.54762286477233     -2.30248009444944      0.05656264221515
  N   6.81613571718897     -2.50151546295061      0.15050447074656
  N   4.56967405862890     -3.24660927754347      0.16496213031641
  C   3.38756576325883     -2.64301280060431      0.00108525649162
  C   2.13159374081944     -3.45341004542363     -0.01798107465995
  C   1.75605511550658     -3.89692297618321     -1.41470488582280
  C   0.32647810504828     -4.02323771717881     -1.77118080801436
  N   1.14235432739679     -2.95023005475349     -2.33483825184059
  H   6.37132679576118      0.07508787402821      0.79086487071967
  H   7.32737517116716     -1.64595533327856     -0.04515354112053
  H   1.30006100908290     -2.88966093165102      0.40699996712717
  H   2.30257043925309     -4.33696424909165      0.60077653504213
  H   2.47354645236581     -4.55956903144691     -1.88685739518710
  H   -0.39421755726495     -3.77142995684401     -1.00077647718992
  H   -0.00285446390114     -4.76984158803710     -2.48361558202358
  H   0.96861471777854     -2.06717939533064     -1.86052322914516
