25
Coordinates from ORCA-job 14922optt
  Br  1.06338957394001      0.04822744449570      0.53856792614861
  C   2.93622213658641     -0.03396662856782      0.26813986026336
  C   3.67148590157677      1.12000903793988     -0.05862438598894
  N   5.10096439864583      1.05241894819415      0.18883974096729
  C   5.74306371349699      2.10819725138476      0.82633632563041
  N   5.50086299932795      3.34088651522134      0.64453647431816
  S   4.35194334561758      3.72673483581988     -0.53720933037508
  C   3.19551669756533      2.34142519019892     -0.59104570278063
  N   2.02176143924333      2.57131152494724     -1.09494412799176
  C   5.71186902531632     -0.19596633974212      0.20573931664822
  N   7.11367714095284     -0.14430503649725      0.16677538670926
  C   7.70050200908816      0.56938054386447     -0.94310689083998
  C   9.09290361093505      0.10000121633917     -1.22924212501826
  O   9.62821053424801     -0.82388426036521     -0.67901782467445
  C   4.99648099653408     -1.32601273497987      0.25486294513869
  C   3.54157132334882     -1.31167019747441      0.47714615897438
  N   2.88017742097015     -2.38281605360377      0.80782632595069
  H   6.53541932472181      1.82094125936532      1.51205729432829
  H   1.90701644894156      3.56213990274490     -1.30061575573308
  H   7.54025139787829     -1.05247911101128      0.29515920827785
  H   7.74192832569869      1.65052267084620     -0.76140657717532
  H   7.13093162970784      0.45313221771685     -1.87960378931043
  H   9.61774616505826      0.66539405163728     -2.02249848293742
  H   5.49862736205950     -2.28105636350045      0.15888060805032
  H   3.53147707854033     -3.16156588497390      0.88644742141982
