22
Coordinates from ORCA-job 14924optt
  Br  1.08222872537535      0.03089511307338     -0.38322414474421
  C   2.95522147198214      0.07690988677667     -0.13141674598360
  C   3.63411760418786      1.28378873924641      0.13957462177535
  N   5.06595516053672      1.27333467217072     -0.02179991180337
  C   5.75861016912750      2.41603394407553     -0.41547718430006
  N   5.42608537366832      3.62327213878557     -0.22938787138585
  S   4.04000665815059      3.97568505325837      0.66407562314130
  C   3.01985172301060      2.47274590413072      0.61807282190207
  O   1.86321503639666      2.64258589189019      0.98278035895896
  C   5.74311084543168      0.05448984469561     -0.01861205044032
  C   5.07167521608388     -1.10425728687613     -0.05858318237909
  C   3.61453007661944     -1.17649564630246     -0.26632288634867
  O   3.08715257508832     -2.26589003530897     -0.52370149837042
  C   7.22990819130071      0.13355776664024      0.04272983430085
  C   8.07952076546177     -1.01470535096183     -0.31788549649964
  N   8.01041696678398      0.14266539383700     -1.20738793849888
  H   6.68988169772126      2.22478672678935     -0.93943351036153
  H   5.58761046951187     -2.04921687848513      0.02432937673574
  H   7.61721064500576      0.83334587504487      0.77581576416040
  H   7.60089219454381     -1.93058547565254     -0.63547853568287
  H   9.02709710178442     -1.13895659782974      0.18988688120027
  H   7.37870133222725     -0.07298967899783     -1.97455432537643
