21
Coordinates from ORCA-job 14921optt
  Br  1.30906069713917     -0.03143018202439      0.02005783080206
  C   3.19688560389627     -0.03210259251450      0.01373361706163
  C   3.89963552640767     -1.24914005824900      0.01421320788698
  N   3.34840687563830     -2.51730739892805      0.01699415866920
  C   4.23090512619846     -3.57055627375866      0.01740941855134
  N   3.99568354725057     -4.82619726839864      0.01984385643008
  S   5.88301006128323     -2.92985497356783      0.01390056806202
  C   5.28439543797590     -1.27913322465296      0.01192219174422
  C   5.95192774818567     -0.07086627089215      0.00877060560529
  O   5.28452157077103      1.12041969199798      0.00713913802931
  C   3.86750728274884      1.20409593265546      0.00988594035253
  O   3.41883138129398      2.32776727884940      0.00859744458270
  N   7.31433397459600      0.10824534750877      0.00752704688749
  C   8.01473095612431      1.26757758591591      0.00466801444873
  N   9.31844755812249      1.00344172873482      0.00494797242607
  C   9.35212310407564     -0.33907874100667      0.00814322086200
  N   8.17008823481938     -0.93746564552735      0.00970941307538
  H   2.34973558055764     -2.65448992551546      0.01916696139536
  H   2.99436183984385     -5.00870982232184      0.02172999181596
  H   7.53352663746739      2.22875500634196      0.00236085593249
  H   10.26388125560417     -0.91497019464680      0.00927854537915
