26
Coordinates from ORCA-job 14939optt
  Br  1.81900405985012     -1.14999215315186      1.53682403176806
  C   2.75522358400781     -0.63919245859950     -0.04114626501843
  C   2.56790502350307      0.61390116519855     -0.61996626710166
  N   3.03815385298050      0.61973912348635     -2.02335992284538
  C   4.41328335144716      0.40347335274601     -1.78097764997096
  O   4.68006787370494     -0.86190453983633     -1.37116078520831
  C   3.72540077965910     -1.52483457543651     -0.56617673914262
  N   3.89951197666993     -2.77415334789197     -0.33170211026789
  C   5.35258857711798      1.36139207526520     -1.81579880705274
  C   6.64585878471449      1.31837954471767     -1.14245823579498
  C   6.84941721262948      0.94991674724884      0.12978161094574
  C   5.89704952794457      0.46398004011178      1.14048653712146
  C   4.67025489717451      0.85531286178117      1.50839343221767
  C   3.82306098634165      1.97156121264395      1.03200282881241
  C   2.84690112109324      1.86659687819904      0.09881104077211
  C   2.18050047628225      3.05677854819368     -0.35312342192567
  C   1.63037395226590      4.03375695855009     -0.78961922498383
  H   2.90565685075359      1.54908551493785     -2.41010094138096
  H   4.75225396576150     -3.07895213058557     -0.79544421179692
  H   5.06168762303719      2.30283619494015     -2.27048703587569
  H   7.51522842701842      1.67138779757831     -1.69372187922802
  H   7.88203425445592      0.94671995861279      0.47250116686895
  H   6.29714675408620     -0.36177053035274      1.72456388172836
  H   4.22924951972505      0.28072452313309      2.32112233738050
  H   3.96133358838124      2.93168395792141      1.52397620867241
  H   1.13185297939406      4.89557328058850     -1.16021957869360
