22
Coordinates from ORCA-job 14930optt
  Br  2.10051903659392     -0.73435716909584     -2.57574078381350
  C   2.83443297333554      0.02375252821075     -1.01997819911961
  C   3.32987982630727      1.27884660265582     -0.96855217341086
  N   3.15512595606448      2.22279046026438     -1.97140256154011
  C   1.89350665653284      2.69067926295950     -2.38414253417876
  N   1.74032411787765      3.40116966188700     -3.42520274133199
  S   0.35367254114267      2.28727798831171     -1.51758969990533
  C   0.57812757564938      2.16339344546394      0.20812928051003
  N   0.72006870855860      0.96328092105598      0.79718817260906
  C   0.68805553695816      0.83566390847998      2.10422556149940
  O   0.14638788935078      1.38730960362498      3.02939038290827
  S   1.91699378700370     -0.64611376864392      2.62803267562998
  C   3.00185263192639     -0.17769562728977      1.32162123119156
  N   2.74063543454344     -0.74972065701544      0.10394885942967
  C   3.80760306919745      0.91347794208251      1.39737574316727
  C   4.08024088243688      1.70489194179963      0.22265632682850
  O   4.75203522057539      2.73617866237058      0.19423730745028
  H   3.85253364315485      2.95711231194786     -1.90940542838170
  H   2.61986137364791      3.45223956539923     -3.94076685564717
  H   0.55267018488152      3.08105523910499      0.78788054021447
  H   2.01023574720117     -1.44752382590591      0.10353532750997
  H   4.01923720705990      1.35429100233201      2.36055956838058
