22
Coordinates from ORCA-job 14934optt
  Br  1.16718389242063     -0.89827885402079     -0.66754434626116
  C   2.97548261733662     -0.49427909519239     -0.32861746913571
  C   3.42392551478521      0.78078234008903     -0.45078140269367
  N   2.63687175248939      1.88067398950649     -0.87221453298987
  C   2.30183973682643      2.76181741925205      0.21117591684990
  N   1.25043884196953      2.67970687768991      0.90307665080510
  S   3.53337351949776      3.99348176794284      0.53055509389600
  N   4.88316844241331      3.52896614125009     -0.32460669296909
  C   5.42616362106632      2.33064185423488     -0.21171959692991
  N   4.74678112160532      1.05983205860177     -0.19463201385556
  C   5.63385001190035      0.03764936521610      0.00718841311153
  N   6.87159008829403      0.60536829137909      0.03923022380862
  C   6.82161556495374      2.01331553644844     -0.08544224803240
  N   7.82480213923018      2.82686589259044     -0.05613601103203
  C   5.24128884714593     -1.26396677307420      0.12799981601497
  C   3.85552337683899     -1.62676366971463      0.01309522023903
  O   3.43438661067529     -2.77751946682365      0.14021295759598
  H   3.19703264852102      2.41258089586694     -1.53656807430015
  H   0.66417264037488      1.92910292079524      0.53648652072799
  H   7.71087694416803      0.08880003277716      0.22680647375538
  H   8.69344281462298      2.31339779987124      0.07710445497805
  H   5.96618925286398     -2.04617532468606      0.30233064641702
