22
Coordinates from ORCA-job 14942optt
  Br  6.43771893550698     -2.50698393039164      2.26454682944452
  C   5.89732271247020     -0.71869944939171      2.56651886601553
  C   6.06074239021398      0.26536044067847      1.53914706007757
  N   5.11905318899439      1.26436681120025      1.47064770779053
  C   4.37614424425748      1.42293281378973      2.49046585169161
  O   4.50218183707755      0.78839656938621      3.68575009750553
  C   5.26639105461632     -0.37867079156983      3.76448402014377
  N   5.22806385422177     -0.94698737376394      4.94331941889950
  C   6.34025530182936     -1.44365162813458      5.56087073695336
  O   6.35323117233109     -2.28824756224634      6.42979354158101
  C   7.60447821488447     -0.74410699856649      5.06138001033424
  N   8.50793291404665     -1.40816796914002      4.48040288934435
  C   9.20960486473530     -0.94889173065682      3.35688237527560
  C   8.57589692517909     -0.04365067515236      2.59066601782512
  N   8.48847201329346      0.14399419376689      1.22476395118224
  C   7.22871523140815      0.38690410072728      0.63523923865450
  O   7.16774838640685      0.70589039844496     -0.53617826568291
  H   3.58643790791315      2.16196525955629      2.51853778213240
  H   7.52956156924415      0.34996839776236      4.98650439813495
  H   9.99182843420966     -1.60466882826558      2.99721207945628
  H   7.80520434602034      0.52023956059727      3.08299671816611
  H   9.22101450113949     -0.12529160863039      0.58604867507414
