22
Coordinates from ORCA-job 14944optt
  Br  0.95500341472299     -0.04689636408798     -0.60481458271697
  C   2.82090601498559     -0.22947432809071     -0.69600719623779
  C   3.48634098343253     -1.16331195094790      0.07485688955338
  N   4.86816682507389     -1.24574696275536     -0.02107356403825
  C   5.45709880736690     -0.46622463162474     -0.80963593858647
  O   4.92289096697451      0.45614734126945     -1.60331469450099
  C   3.52083766072245      0.63086037178604     -1.59949189323552
  N   3.03496768913954      1.50791352617792     -2.37609983359958
  O   6.77200393737336     -0.47620783936505     -0.94778311408008
  C   7.53163208111080     -1.33616215457152     -0.15505753343275
  C   7.26887942218891     -2.30689492961200      0.79546110974770
  C   6.31565024220212     -3.03916219526848      1.54984558791101
  C   4.95094573981153     -3.25221353689246      1.85319786018210
  C   3.60835327930405     -2.87126288978080      1.62862711952671
  N   2.88670025233651     -2.00639519449296      0.91434923122877
  C   8.90207480374753     -1.09265685931768     -0.45883558981953
  N   10.01509706264331     -0.90463735408263     -0.69555018463728
  H   3.78087856900252      1.95966285762428     -2.89845366022603
  H   8.25446682770583     -2.66543516880042      1.08393087216289
  H   6.88766813974993     -3.73403525261259      2.15918998610789
  H   4.91309396903109     -4.05229978547902      2.58913366273781
  H   2.95034331137395     -3.48256669907535      2.24452546595297
