21
Coordinates from ORCA-job 14950optt
  Br  1.35436841856170      0.48192568804060     -0.21769427421675
  C   3.21544005770487      0.27780633406363     -0.08492491161249
  C   3.77348157784896     -0.98145793750519     -0.08990587475247
  N   3.21226538147349     -2.25968793911668     -0.16049732461201
  C   4.21823273200693     -3.04407607713268     -0.10683070056820
  O   5.44045126058692     -2.45277223800802     -0.00977857621143
  C   5.16185767808942     -1.11218077795522      0.00246047189646
  C   6.08317434645891     -0.08035693371280      0.09208782346056
  C   7.49517046068334     -0.39993005104819      0.24110328398860
  N   8.51007790169859      0.31432684876749     -0.03538830656115
  N   8.32141072362481      1.57173202653308     -0.58949755190022
  C   7.52770329426817      2.56578018768833      0.11278531113294
  O   8.10281898919172      3.61120516112349      0.36204059887686
  N   6.22178952766809      2.35332816231753      0.35228964605152
  C   5.55198408076086      1.23103358532415      0.14175342145020
  C   4.05889380144548      1.43360098898642      0.03137889913561
  N   3.54550736191526      2.62847665468513      0.04048677549792
  H   4.21615011217334     -4.12201208295898     -0.12823765850482
  H   7.73076783850827     -1.39425423541720      0.60975320061033
  H   9.23671186963867      1.98996611285088     -0.68193779285641
  H   4.32474258569209      3.28254652247424      0.15355353969496
