22
Coordinates from ORCA-job 14958optt
  Br  0.57640169338986      0.84316195641383      0.57683946512321
  C   2.40805094229193      0.52291298120335      0.31863703500149
  C   2.92083978769460     -0.78297179916820      0.16384609066353
  N   2.32233117002709     -2.01427631684072      0.15930571067405
  C   3.28061171983327     -2.86813091561990     -0.02549965393074
  O   4.53020226087772     -2.29843896789143     -0.15155790872845
  C   4.30714060037340     -0.96361254723011     -0.03179044887181
  C   5.23264199704715      0.04149991351754     -0.08791966315790
  N   4.67421244755966      1.32316887386785      0.06711138489048
  C   5.28007809286852      2.54122362680414      0.06118251051970
  C   4.33867795153792      3.49154890783217      0.24386513689693
  C   4.74241765848053      4.92373011029305      0.26336694999951
  N   6.19427431718736      5.05054618052486      0.06447143216610
  C   6.94134401904039      4.05417437659811     -0.09359550951791
  O   6.62412389463819      2.72715235119237     -0.11854844921597
  N   3.10412223938227      2.91875972390023      0.37423351888606
  C   3.31270142947429      1.60523298430469      0.26629935026724
  H   3.22925972777251     -3.93985876101139     -0.09103955486119
  H   6.29463517644582     -0.04151062411919     -0.23402657085382
  H   4.49053412577412      5.41546892435582      1.20870543299489
  H   4.24497496614807      5.50460570702340     -0.52027703979893
  H   8.01042378215530      4.17361331404953     -0.23760921914647
