24
Coordinates from ORCA-job 14969optt
  Br  1.68672222971580      0.38687696897870     -0.32761315521580
  C   3.52654525152988     -0.00269034349999     -0.22458850968682
  C   4.00133220314049     -1.26075762048013     -0.16547039509079
  N   3.37899792695429     -2.48181372602964     -0.16142994263865
  C   4.31582443326267     -3.53543692435985     -0.07531766778470
  O   3.97548101508292     -4.71505365826893     -0.05204662024540
  C   5.60902627393943     -2.91045716498768     -0.03000891383320
  C   5.43112894416513     -1.49589664942558     -0.08442582346352
  C   6.30762799843137     -0.42164870513687     -0.07221320214006
  C   7.77140640160550     -0.60964862054448      0.00861052992086
  C   8.47576285488882     -1.75518677427831      0.07031213198882
  C   8.08051930742101     -3.15551046055314      0.08323820844831
  C   6.81639705913190     -3.64501130227543      0.04062693229972
  C   5.77352263650103      0.88493010292978     -0.13393978778797
  N   4.39249398876779      1.05046567652375     -0.20823045067201
  C   6.47108903191003      2.12453072704296     -0.12818234574688
  O   5.86796058512453      3.22032837215517     -0.18095836152044
  H   2.38708460439099     -2.63834597949716     -0.20112324375759
  H   8.35533775689333      0.29971725023426      0.01845466756274
  H   9.55204613826439     -1.60994208141127      0.12194451495453
  H   8.89532586437831     -3.86695337778160      0.13636707413626
  H   6.68327056795220     -4.72336527669258      0.06208481581929
  H   4.08917017009152      2.01481707980557     -0.24881827854552
  H   7.56392675645659      2.09805248755242     -0.07527217700118
