21
Coordinates from ORCA-job 14961optt
  Br  1.11075323993251     -0.00802801276963     -0.47871829345580
  C   2.92393953742960     -0.07716970832538      0.12997683138637
  C   3.72343899913430      1.10329758802115      0.13119046157075
  N   3.36228034620610      2.43548898137567      0.23114809445490
  C   4.47175260345805      3.08805775444139      0.27701774387182
  O   5.59475503069849      2.31192074876474      0.22185827075129
  C   5.11849073023727      1.04469874524579      0.12105903561309
  C   5.87587426209626     -0.13319543067820      0.06075245792334
  O   7.25343639273887     -0.15696354232849     -0.08326828769849
  C   7.89091693014531     -0.64289532450194      1.07239799237570
  C   9.34716582725237     -0.63685042068472      0.86180357277313
  N   10.48560544278922     -0.64132865389256      0.73502385463367
  C   5.06586989235994     -1.27148303170730     -0.04315597970592
  C   3.67178136342657     -1.27881481579459     -0.02468176246488
  N   3.25931925318654     -2.59710652962344     -0.09657065637542
  C   4.34079297448165     -3.29475946041236     -0.14647233028562
  O   5.49589518208659     -2.55930302420413     -0.11501399986408
  H   4.62654901446727      4.15255730891374      0.31530516537319
  H   7.57917946621869     -1.66874102015371      1.29277002139480
  H   7.66102121219650     -0.01619492826357      1.94033172076699
  H   4.45318229945776     -4.36018722342248     -0.24675391303885
