19
Coordinates from ORCA-job 14963optt
  Br  1.11039742680903     -0.32711450621057      0.47885747582021
  C   2.97905971170016     -0.19848887389116      0.24114453101228
  C   3.71607472810341     -1.37177496508482      0.10764065534498
  N   3.28244816644305     -2.64166240011686      0.12487637278562
  C   4.36136311455385     -3.39328117137122     -0.05264494710894
  O   5.53069209734315     -2.67566951979134     -0.19013848534943
  C   5.14692693864027     -1.37139469135881     -0.08766156410559
  C   5.96069189742725     -0.31150100593861     -0.15504847918964
  S   5.32317475527271      1.29198823955381     -0.00920719259597
  C   3.51911724470055      1.11398050165205      0.21398447674125
  O   2.92909320687904      2.17172301830559      0.32208256312399
  C   4.43543305756831     -4.79552637017077     -0.11814643388815
  N   3.43947889234032     -5.62669329853115      0.01141854551696
  S   4.02536837698573     -7.18441765383079     -0.16277874119554
  C   5.69263447435985     -6.66304212570193     -0.42101073805354
  N   6.75484859775062     -7.30435193300547     -0.64358134907491
  O   5.69785675283489     -5.31213380938159     -0.34726202838584
  H   7.02730941016053     -0.40228575798903     -0.30154170873771
  H   6.57303115012724     -8.30235367713729     -0.66898295266003
