23
Coordinates from ORCA-job 14964optt
  Br  1.56949258579272     -0.94627999058172     -1.77278318033391
  C   2.81264181150993     -0.43901273383079     -0.39027889824025
  C   3.59303943663342     -1.41441501624147      0.23153912844343
  N   3.33393648651231     -2.70204588293358      0.69008800482847
  C   4.43252250727715     -3.05820912199929      1.24489092131670
  O   5.44542289188153     -2.14308927458792      1.20492509024674
  C   4.91260945120866     -1.08897863402141      0.51818404240448
  N   5.62085107710052     -0.05075012974654      0.13401971614355
  C   4.91902320190550      0.86486410051600     -0.58503978297270
  N   5.44553812723567      1.78314622135312     -1.31479570581909
  N   3.46265228496336      0.81600697607427     -0.51726322039420
  C   2.65686368630713      1.94223534500591     -0.36786813119115
  O   1.46154706739215      1.83482534132029     -0.20865253108653
  C   3.28369815950126      3.32244633045678     -0.39552218743153
  C   3.36384060099630      3.87993571775400     -1.82556457819406
  C   2.08626166598255      4.38193775664517     -2.33252286674544
  N   1.11078059429447      4.82208853209624     -2.74464375249330
  H   4.65128583775602     -3.98776687724177      1.74358611192128
  H   6.45439905958989      1.69084878539773     -1.22047354517426
  H   4.28810817566769      3.31231422740290      0.01278430618626
  H   2.63349129689340      3.94880710069073      0.21314185292702
  H   3.75546972255913      3.11461738927327     -2.49415809839915
  H   4.06952427103911      4.71147383719800     -1.85459269594233
