20
Coordinates from ORCA-job 14976optt
  Br  1.06393190009238     -0.05882466186223      0.10170227079183
  C   2.95358018628548      0.04256611599940      0.09803605373100
  C   3.60461681465503      1.25103969269355      0.09722222093688
  N   5.00102662935601      1.24594174640608      0.09531649770565
  C   5.53376931225053      2.58528528198570      0.09495348683114
  O   6.72872570161450      2.82022413347319      0.09348681037883
  C   4.36889823893009      3.42128149069584      0.09651990951492
  C   3.22609622662072      2.62344020573448      0.09789329930081
  N   1.95700104073179      3.11958144355902      0.09917215930946
  N   1.74502006218341      4.33337775962958      0.09959969915891
  O   2.87577475045118      5.24065589751626      0.09890984928876
  C   4.20363387939360      4.84652020565818      0.09689668921880
  N   5.11428112930925      5.72574837768386      0.09567953020705
  C   5.75046712594133      0.06223801531427      0.09427819371180
  N   7.02319931128357     -0.03986442262740      0.09306256400581
  C   4.90783138842630     -1.13052454237615      0.09475375589295
  N   3.61122541975026     -1.13027154206265      0.09664428929804
  H   4.68811607236216      6.65159987068136      0.09635941089500
  H   7.45165931203272      0.88329408197837      0.09293838777106
  H   5.43314549832965     -2.07830915008075      0.09357492205130
