21
Coordinates from ORCA-job 14970optt
  Br  1.85488157069121      0.39444953005262      0.57765605526852
  C   3.63957804603877     -0.16156486672478      0.43939506603431
  C   4.03590829714665     -1.38870334899936      0.05996245352559
  N   3.37561171202696     -2.54196185923828     -0.30265515250979
  C   4.28607838430303     -3.55597630271861     -0.63828871133651
  O   3.94809911442081     -4.66690501982998     -0.99859759927065
  C   5.62615496181652     -2.96051173064893     -0.45786866150961
  C   5.42059565798447     -1.64781737632442     -0.02959018748184
  C   6.32945039200086     -0.58606333310450      0.28448247067684
  C   7.75157890021929     -0.78905770990594      0.19213407301090
  C   8.41625572567773     -1.93476155648702     -0.19921905178773
  C   9.90787506419505     -1.82015236192511     -0.21526441219354
  O   10.55838693679470     -0.84435358660944      0.07360421023379
  N   8.06238091591343     -3.18503744918360     -0.59441665668903
  C   6.82337277401432     -3.63556952397020     -0.70509323613194
  N   5.91891099551993      0.59145181091114      0.65742910778165
  O   4.52978773141595      0.81557667248744      0.74406222711003
  H   2.37885430231814     -2.66972725653147     -0.33397715652828
  H   8.37696080101654      0.05709007210864      0.44628872047557
  H   10.39237615084695     -2.76032986443413     -0.53720734111110
  H   6.72490156563863     -4.66607493892406     -1.03683621756719
