24
Coordinates from ORCA-job 14980optt
  Br  0.73665450971391      0.05091384271388     -1.37862651764534
  C   3.02310860710089     -0.07557654192783     -0.11058825347239
  C   3.72254294414494     -1.24850205895227      0.11697856641660
  N   3.00999158378956     -2.49064650800610      0.25904117300259
  C   1.72950576968641     -2.50595045915255      0.81390326850207
  O   1.19079982051791     -3.50328249607859      1.21501695785245
  C   3.76262231091443     -3.64076792202308      0.12577198503295
  C   5.09057967424617     -3.68333384887112      0.20228698226424
  C   5.92899884380752     -2.48848080433359      0.49082194034282
  C   5.11909359180397     -1.23188691553454      0.23052585397313
  C   5.78156420929837     -0.01480133783719      0.10353363066012
  C   5.07917198427363      1.16127542089121     -0.11396297662421
  C   3.69235847951839      1.12419699658670     -0.22690684694364
  S   5.65379474704682     -5.29967290612320     -0.16154563096155
  C   3.97190752689834     -5.84120145510826     -0.36695079633186
  N   3.53177527878240     -6.98925187821170     -0.63002148026326
  O   3.12138925012251     -4.79921736076748     -0.20068065963559
  H   1.29265685785169     -1.50302362326535      0.83502482342753
  H   6.81795474634334     -2.48473068640108     -0.14733683964155
  H   6.29164810882131     -2.50307662167626      1.52567208284191
  H   6.86375772630226     -0.00027608149799      0.17663059348981
  H   5.61352724286294      2.09968737301146     -0.21105935563175
  H   3.12943726169040      2.02690793532860     -0.43567198833973
  H   4.28715892446175     -7.65930206276359     -0.72385651231532
