28
Coordinates from ORCA-job 14985optt
  Br  1.13982517968085      0.10329365813575     -0.40228839780923
  C   3.02286874471466      0.13868129996654     -0.22997050969631
  C   3.69909972787330      1.36135149186367     -0.07981304684857
  N   3.19190907643967      2.66874971756375     -0.10138053383547
  C   4.16379802120403      3.60400485628525      0.09715212174879
  O   3.97522637382218      4.79349979997553      0.27105397414958
  C   5.51756628311256      2.85085713243130      0.09216781411557
  C   6.37506614813636      3.22506813347684      1.30795847718271
  C   6.96024565541464      4.63190412524285      1.19908364705122
  C   7.70844675784330      4.79347371873660     -0.11663640465302
  N   6.79833958665897      4.52972919642918     -1.21920737879499
  C   6.29678871811231      3.16564968430705     -1.19857860722511
  C   5.07430524656496      1.40741090429693      0.06712962664329
  C   5.78531975889982      0.23566019524697      0.07099622264888
  O   5.12756322586629     -0.97775187644929     -0.03581523227725
  C   3.73153821423845     -1.07986512111777     -0.20123445070038
  O   3.29823086865118     -2.21315890447746     -0.29601786057765
  H   2.20984613677536      2.89285464200647     -0.08224850946110
  H   7.18844652990664      2.49286004376492      1.36880909577764
  H   5.78156806205786      3.11506994094535      2.21775334622415
  H   7.63942538656261      4.81907451670577      2.03497801908959
  H   6.15261571437327      5.36357505330905      1.23270756519080
  H   8.57543492129038      4.10654526352326     -0.12394883440511
  H   8.09199288626417      5.81105109163875     -0.21532058454712
  H   7.24103557326644      4.72303347258262     -2.10759467476012
  H   7.11031055120753      2.42221086015140     -1.25298534967145
  H   5.64535926775484      3.00263685240110     -2.05916237535494
  H   6.85182738330726      0.12353025105758      0.18641284079559
