27
Coordinates from ORCA-job 14987optt
  Br  1.67347344811312     -0.76723223512313     -2.13394404846005
  C   3.17095729017354     -0.31917760238909     -1.03856011511862
  C   3.84522548659691     -1.36330994847899     -0.35133662330009
  N   3.44079685608129     -2.67276251972194     -0.42063029756614
  C   3.98918875303775     -3.51344377401004      0.36190716976737
  O   4.94664297583661     -3.22583799192258      1.29843113120969
  C   5.77404126345142     -2.09796178443254      1.02494827913275
  C   6.53377682187885     -1.78886467494719      2.32868003893788
  C   8.00526120814043     -1.83599205023468      1.92166445534551
  C   7.94862453133446     -2.83166678179839      0.77173342006878
  O   6.76391200004413     -2.48680736586268      0.08099088333343
  C   4.96961509118041     -0.97276315680190      0.42477876813160
  C   5.36630480609167      0.33041105228487      0.52918342170755
  C   4.66182881782538      1.36910009864522     -0.14234052390467
  C   5.07135640517544      2.72729344503108     -0.04081799324813
  O   6.03781901977853      3.15374914267929      0.61364786084765
  C   3.54637395192167      0.98721356611470     -0.94109743983541
  H   3.69613973962580     -4.55480843946955      0.38775642041236
  H   6.30264109103417     -2.58248532463354      3.03938685326327
  H   6.22300845168494     -0.83906748723786      2.75441624092646
  H   8.66616971787236     -2.14799026270765      2.73036478814033
  H   8.33292624837010     -0.86446551276612      1.54886813929353
  H   7.88974506813029     -3.86109052632018      1.14923346376875
  H   8.77912845121757     -2.75674763900380      0.07071631186565
  H   6.24496456924781      0.61411892218175      1.09692847724476
  H   4.44657182946124      3.43944507603779     -0.61798599279380
  H   2.99550610669399      1.74914377488720     -1.47992308917041
