24
Coordinates from ORCA-job 14981optt
  Br  0.63151508199638      0.16576364372675      0.61477107959893
  C   2.91339254091330     -0.31298706757503     -0.31186920970739
  C   3.56850065127175     -1.41469742193030      0.16695325759430
  N   2.77016554067925     -2.52144044448229      0.58730626722219
  C   2.89284857820145     -3.83708019395453      0.27967795961180
  O   1.97669044726602     -4.63703185987034      0.39201659332204
  C   4.23450752237848     -4.29410279291281     -0.13299616240883
  C   5.43375774777870     -3.73616965326603      0.16206959449221
  C   5.74878812339866     -2.48664827361730      0.89939285183775
  C   4.97722972216465     -1.32115904484191      0.32294944625164
  C   5.64797711715869     -0.18784250720702     -0.03928685571746
  C   4.96876603810326      0.97382556061714     -0.55431961004067
  N   5.45522447013642      2.10670043298782     -0.93754080662395
  N   3.58855544116914      0.79930279609588     -0.62669882662174
  O   6.42028095445331     -4.50915009525867     -0.29384821834009
  N   5.87895874649887     -5.62371042777378     -0.91228054704967
  C   4.59137398769071     -5.49395340837063     -0.80135692357399
  H   1.82096196435720     -2.24215151661836      0.82767475344055
  H   6.82036251699087     -2.29587113540527      0.86978990108366
  H   5.45275019735910     -2.62429891110825      1.94483465397139
  H   6.72360380374658     -0.13258121446575      0.06765541057207
  H   6.46471155658494      2.09833235884941     -0.83125595532290
  H   3.06615464634542      1.60739097399626     -0.94081150582880
  H   3.93392260335665     -6.25043979761491     -1.19982714776305
