23
Coordinates from ORCA-job 14991optt
  Br  1.24046646240157      0.20149781939733      0.24943387631511
  C   3.10034103562433      0.04777904687310     -0.01470424046320
  C   3.86558382131725      1.24693768847304     -0.04897359374869
  N   3.41274829385170      2.44789267615123      0.08434858580985
  C   3.13340739318136      3.66011642236730      0.33124022748736
  O   4.06962472197149      4.72461878296425      0.42058269555304
  C   5.36526643470926      4.48891467452377      0.02846224164291
  C   6.06817065516592      3.27581421580225      0.66370429436433
  C   6.09702107071451      2.20949075687960     -0.43208483688997
  N   5.26587000096469      1.05656589968112     -0.22182062303869
  N   5.85673507484655     -0.12970307325136     -0.40709695442828
  C   5.12799548945092     -1.18475345369959     -0.36264199408395
  C   3.66248476778124     -1.23472533332344     -0.14924201779905
  O   3.08800386102557     -2.33460037352914     -0.11045970896994
  C   5.69329491138902      2.98461688463574     -1.69724706467036
  O   5.64860751518906      2.56417827044027     -2.81036190942229
  O   5.43651111985392      4.27182513414204     -1.39002463269505
  H   2.14176735775228      4.06987088474433      0.47733421495312
  H   5.89670723046686      5.41953100765220      0.21696103367560
  H   5.54122634871215      2.94183763428621      1.55333250044043
  H   7.08373081461595      3.55873646924612      0.94082763246492
  H   7.09550518276778      1.81341480246125     -0.60177032139917
  H   5.63693043624648     -2.13185683691765     -0.49879940509803
