25
Coordinates from ORCA-job 14996optt
  Br  1.28572142946272      0.23095705194575      0.79548579731081
  C   3.09398839151206      0.08154115428999      0.27589803884124
  C   3.84306561693397      1.20159732776657     -0.08095465984275
  N   3.51401460505980      2.55665365327208      0.10702699548310
  C   4.62266343976336      3.35969021777178      0.01764909873089
  O   4.66435974932348      4.54447598852831      0.27017430263781
  C   5.77367493550487      2.47598793787092     -0.48669041101217
  C   7.06934717621984      2.50439137215761      0.36693907334317
  C   7.34957009427867      1.13274763104610      0.99385271743167
  N   7.19001724709382      0.07505805752512     -0.00434551754224
  C   8.26279781960813     -0.52480342640904     -0.55590470044048
  O   9.42408855520737     -0.37430261454463     -0.21834325431053
  C   5.85188489192945     -0.09518442074149     -0.51297770614015
  N   5.09828648242658     -1.18894168953035     -0.00838675344837
  C   3.72691943219155     -1.20081603708442      0.29225557617030
  O   3.19316368752859     -2.27556814932599      0.56519390966606
  C   5.14439105353005      1.11989956226544     -0.51369592534940
  H   2.63878097802948      2.87003538847517      0.49596110955836
  H   6.00696665769418      2.85291436397220     -1.48863609133772
  H   6.99137354633711      3.26848939009194      1.14344473568906
  H   7.91697653517754      2.77092135265026     -0.26519587164608
  H   6.64062897547865      0.92995008790298      1.80007625887231
  H   8.36393485170864      1.08356434991148      1.38523440811483
  H   7.96717036792703     -1.20073048860675     -1.37541619516575
  H   5.46521348007290     -2.12252806120104     -0.11064493561398
