24
Coordinates from ORCA-job 14993optt
  Br  1.12103913085253      0.70552337357666      0.49239574160289
  C   2.99528244631609      0.43955715273247      0.33817808892850
  C   3.79032017986618      1.51004095985706     -0.14216578195891
  N   3.28138597729470      2.68742539285436     -0.63314479989216
  C   4.04373029510073      3.49893102912366     -1.26736496368003
  O   5.39486396150490      3.33151963921843     -1.52088661635456
  C   6.03891687782585      2.52985174396134     -0.54139407872161
  C   6.24934264080841      3.39423013622089      0.72434672553499
  C   7.07209785554241      4.57422226754456      0.46571892542542
  N   7.73292425503151      5.48889504942779      0.26028796796598
  C   7.33816265828107      1.88549830885333     -1.02859320525819
  C   7.39999434839306      0.53762375923643     -0.26537580734829
  C   5.94365946789159      0.25342864784596      0.00843109401072
  S   5.25280721486923     -1.24807884397701      0.51905321680563
  C   3.43361232319044     -0.85073204382786      0.68696411324183
  O   2.79059025454222     -1.81322917930026      1.07719115755965
  C   5.19224134899674      1.34482322158181     -0.20424894148596
  H   3.66416252922630      4.40623266391809     -1.71687519025855
  H   6.72919371898341      2.79139879783118      1.49725089681163
  H   5.27423994540031      3.71380514005625      1.09872775492906
  H   8.21432198791683      2.51731225629508     -0.87456447375389
  H   7.22736114612385      1.69906644430858     -2.09700297652955
  H   7.97924775217185      0.62692263761771      0.66170790945232
  H   7.87550168386970     -0.24826855495654     -0.85663675702693
