24
Coordinates from ORCA-job 14997optt
  Br  1.44086344794389      0.84828383477739     -1.04055636336183
  C   3.32988836886948      0.44272610313416     -1.20920741905777
  C   3.79457273961943     -0.82491003958351     -0.88503694501357
  N   3.22940848794880     -2.10353190359027     -1.12460672519192
  C   2.43952017665628     -2.49367087141035     -2.15226256677316
  O   1.96237743601187     -1.79119852026816     -3.01320473418675
  C   3.96047096191091     -3.06045482847277     -0.30472304290645
  C   3.40795841831271     -3.21559717024051      1.11355801327244
  C   4.63977725371393     -3.22953984451333      1.99264419866848
  N   4.77929775679976     -3.59804148039092      3.19034750848583
  O   5.69731010261909     -2.77224224911778      1.29533453462334
  C   5.32951156256445     -2.39437298885703     -0.03247146709807
  C   5.00193593509248     -0.93173882855376     -0.21669597475897
  N   5.75332712372515      0.07167633630356      0.21050543675503
  C   5.27410815123379      1.32267616684746     -0.04749838605522
  N   5.77149024371828      2.42924941822642      0.34212445806563
  O   4.13159961010566      1.48053583115949     -0.85186243644530
  H   2.25663072038480     -3.58406706697172     -2.11495090451833
  H   4.04224739535103     -4.01609018029958     -0.82019385922117
  H   2.80326484764795     -4.10795471177729      1.26238693473948
  H   2.80836477834695     -2.33649609848438      1.35980362833935
  H   3.88679021352866     -3.92208937202904      3.55113780856089
  H   6.14097949914293     -2.72916992252000     -0.68178120606783
  H   6.59830476875161      2.20101838663197      0.88720950914586
