25
Coordinates from ORCA-job 14992optt
  Br  1.18357539077402     -0.09562051104407      0.12401993191481
  C   3.10349539035029      0.10760551425871      0.23880371831888
  C   3.64121757835308      1.38169089929779     -0.17716027473887
  N   2.82498339326701      2.35639289787114     -0.58660808587072
  C   3.08619527024242      3.57657687658501     -0.93899912257104
  O   4.35799402062726      4.14506648405456     -1.11269627312259
  C   5.33461561147204      3.73157113082808     -0.20287470979708
  C   4.89775920627385      3.92568005300886      1.25551694199833
  C   5.17149925137032      5.41010341020243      1.49866005430369
  N   6.32592409196998      5.65621819787638      0.65035876790015
  C   6.46907020626485      4.76839471282453     -0.37348054614662
  O   7.30128165189867      4.81394724681714     -1.24334029978914
  O   5.82948536021961      2.46771785158476     -0.49411509797175
  C   5.07924148487323      1.39012266391946     -0.06880578750755
  C   5.77368580965334      0.30022704683819      0.39632092047902
  C   5.09211141354698     -0.85957828080556      0.76172430316939
  N   3.74546089152175     -0.92372217345057      0.66731260842789
  H   2.32164502345962      4.22202941849183     -1.34388423249729
  H   5.53863684193075      3.30827116102415      1.88614887165166
  H   3.85748772798803      3.65027675915346      1.41265529598199
  H   5.40293272029395      5.62589665400280      2.54212359388996
  H   4.31410310025466      6.01640635538443      1.19270795257762
  H   6.82054921480398      6.53205420758867      0.61731911579699
  H   6.85368798251244      0.36229810887406      0.44907979780455
  H   5.60336136607778     -1.73862668518628      1.12921255579771
