25
Coordinates from ORCA-job 14998optt
  Br  0.71602334921154     -0.59113879465752      0.27825652276263
  C   2.56969306473424     -0.22103418175322      0.04975589395215
  C   3.48723454012648     -1.31263756085576      0.10766038766565
  N   3.08165043664731     -2.55242701552268      0.41251034750535
  C   3.96272358097066     -3.52174058053530      0.38538459138914
  O   5.20290611122564     -3.37696872287918     -0.22076843297617
  C   5.84832574746859     -2.12773949660471      0.02159457619552
  C   6.58981047702980     -2.21195108404599      1.36276622131732
  C   7.85159326911040     -2.97375993686163      0.98456389248064
  O   8.12321645883538     -2.61446338012671     -0.37680022168123
  C   6.99311361030808     -2.17331442625606     -0.99324621327411
  N   6.90231362706642     -1.91937927443759     -2.21706554507546
  C   4.88285854520018     -0.97397360524350     -0.08700649942220
  C   5.23634141759506      0.34944779296645     -0.22828569743368
  Br  7.08402573353976      0.89132630803903     -0.26526929109946
  C   4.31960005228433      1.39649766385865     -0.28257653029049
  C   2.95977545143635      1.07362523357187     -0.14842174643484
  H   3.68626178152592     -4.55800816376436      0.50638840891237
  H   5.96809912622811     -2.73161632374616      2.09210498838915
  H   6.82948928824664     -1.21481698409302      1.72793568940027
  H   8.72544550445283     -2.70115368628781      1.57440865721152
  H   7.70056826785721     -4.05422763203161      1.03206013042821
  H   7.79381370219422     -2.09548799448901     -2.67892748928568
  H   4.64693915480995      2.41638633452173     -0.40875549383784
  H   2.21417770189481      1.85655551123416     -0.18726714679877
