15
Coordinates from ORCA-job 149optt
  C   -3.16058813512297     -0.39041483139643     -0.00313395908047
  C   -2.36093283372559      0.75677096603110     -0.00191278156949
  C   -0.97404193748103      0.71366224153753      0.00286350149609
  C   -0.29222944345624     -0.54826729962597      0.00682022215185
  C   -1.08851627209450     -1.67585656042049      0.00563777852492
  C   -2.50145935224415     -1.66551462384201      0.00073244424287
  O   -0.63249360572252     -2.95826754658571      0.00901598519411
  C   -2.88979099417813     -3.02293059566627      0.00114051320972
  C   -1.74448279253322     -3.79124474570176      0.00620470669621
  H   -3.89729619463180     -3.41102749904292     -0.00194789544864
  H   -1.54688947072659     -4.84764023307202      0.00837653463422
  H   0.78685840367129     -0.62593850269471      0.01077289493867
  H   -0.40417274930346      1.63491925442431      0.00358385018097
  H   -2.84801206150235      1.72817839438250     -0.00501487011146
  H   -4.24095256094875     -0.31742841832714     -0.00713892505957
