24
Coordinates from ORCA-job 15005optt
  Br  1.10501347334388     -0.21863213571169     -0.31861306031078
  C   2.89138529612075     -0.15919824165948      0.34426181820768
  C   3.66839106177583     -1.28553188193828      0.28084980221370
  N   3.35054530341466     -2.58515296675378      0.11135366103455
  C   4.51574329435323     -3.23773949975354      0.06347434174293
  O   4.61181004620233     -4.58570817470982     -0.06831007324875
  C   3.41786826518692     -5.22661451108339     -0.43073075329572
  C   3.52245380517280     -6.75279141913196     -0.42157838542551
  N   2.18443168102566     -6.80563015423067      0.21064830649789
  C   2.32388572432071     -5.38679830955667      0.63392768396862
  C   5.66161895123361     -2.41561094529764      0.17420624349012
  N   6.94994048943050     -2.60090198774944      0.13010009983330
  N   5.08201440076695     -1.12500759806951      0.32610374868281
  C   5.67095906066787     -0.01094209862320     -0.25242229697984
  N   5.17126946666637      1.15537296096146     -0.31628819282694
  S   3.69084859252025      1.37089137833033      0.54319684472504
  H   3.02688086295195     -4.81198281228687     -1.36096870657255
  H   4.34073129828843     -7.05921614216358      0.23771888001377
  H   3.60070286954064     -7.27213450002891     -1.37741597668805
  H   2.10371282719981     -7.47003912955698      0.96944105852837
  H   2.75463011964162     -5.25690671196760      1.63112898886251
  H   1.43002220860236     -4.77659129773639      0.53207740499714
  H   7.12358427188919     -3.59139228843754     -0.02126384880865
  H   6.64155662968358     -0.21874153284475     -0.69589758864166
