25
Coordinates from ORCA-job 15006optt
  Br  1.15634483979322     -0.56367234116157     -0.34411778282197
  C   3.06141671583540     -0.32473696702387     -0.57855180287934
  C   3.60571043576694      0.92554755354246     -0.29072532335920
  N   3.01601014576622      1.97542990760103      0.36898389994588
  C   3.81260429645800      2.83967786319554      0.89619880069969
  O   5.19320433335286      2.80925701471545      0.94145248272890
  C   5.81094113919532      2.14719646771270     -0.19361907886311
  C   7.14010599152020      1.44520768842867      0.16377215078500
  N   7.14192659687285      0.11777195644137     -0.51541516185369
  C   5.74615929000079     -0.16276008556714     -0.72452773740665
  C   4.99115606884908      0.99384767538539     -0.59629068946559
  C   5.09675563805947     -1.35237554676560     -0.91549946710634
  N   5.77729776399535     -2.57391312385634     -1.18226509564077
  C   5.19799840171409     -3.74965034895351     -0.56649563726232
  C   5.47729867047100     -3.89365943627731      0.88038438549806
  N   5.75091097797381     -4.03447456502201      1.98554328982922
  N   3.72570364301697     -1.39323263454591     -0.94144034131893
  H   3.42404038228315      3.69948212770990      1.42761242123554
  H   5.93763523800705      2.92952590383191     -0.95296314777103
  H   7.13899064498043      1.28247597275435      1.24428762199589
  H   8.03404388780516      2.00918920919397     -0.10498535970779
  H   7.62328235218207      0.19361446551335     -1.40591044280943
  H   6.75636750147387     -2.46541165976856     -0.94350772684580
  H   5.56960791665915     -4.65107560984712     -1.05564195062260
  H   4.11848712796740     -3.69526148723716     -0.70427830698362
