22
Coordinates from ORCA-job 15001optt
  Br  1.50452850505728      0.32863263980875     -0.35575770785180
  C   3.30655044248627     -0.09233497258911     -0.01654413227052
  C   3.75306215722389     -1.37875409956829      0.06523188708472
  N   2.93312552625279     -2.48426756246884     -0.17884259134526
  C   3.49418690752842     -3.62626855391628     -0.25200865033908
  O   4.75687429352226     -3.96188497527461      0.00788014261618
  C   5.56273710011828     -2.95268430952744      0.53742179479110
  C   6.80280902852388     -3.21028368898045      1.11091802436772
  C   7.89553963041833     -3.29719552978197      0.07742429618336
  O   8.44710805688858     -4.28796384748344     -0.37352166020733
  C   8.19281910625073     -1.93481289411288     -0.38358185845485
  C   7.44106537810286     -0.78576306925402     -0.17738881112326
  C   6.09066669130105     -0.61238414836350      0.20628835638960
  N   5.56011700961549      0.67858098061424      0.22358702341484
  C   4.22768436649318      1.03135567443631      0.12375914184259
  O   3.90748224014257      2.21132734273229      0.12498043093346
  C   5.12880458990482     -1.64230323242772      0.33761851342586
  H   2.91547121573548     -4.49408978687630     -0.55102181540354
  H   7.03166870236093     -2.36217620651913      1.75449085747726
  H   9.10939424548327     -1.83145430613762     -0.95560441504456
  H   7.91850084074917      0.14246614842963     -0.48709648739627
  H   6.18780396584041      1.46825839726041      0.21076766090977
