22
Coordinates from ORCA-job 15014optt
  Br  2.28346124505760     -1.40686285795848      1.95630757822226
  C   3.46310339080444     -0.98981247876540      0.52593745812005
  C   4.22095609245372     -1.88869711718412     -0.13735363889145
  N   4.51854612964823     -3.26305746315589      0.14014021297530
  C   3.64311583115094     -4.23933123468428      0.46064519505490
  O   3.95398132087748     -5.40693796953619      0.61735394598258
  C   5.89182369936210     -3.61624771303202     -0.33592889021642
  C   7.04041539413995     -3.79315371341807      0.70538933465183
  O   7.88490352367996     -2.59844517277223      0.64801745208904
  C   7.28055076267144     -1.78821598406439     -0.24643743450128
  C   6.29777842995192     -2.33866634092740     -0.97735975470936
  C   5.25207400605238     -1.34132796855453     -0.97849622354724
  C   5.87241830551614     -0.12075826732048     -0.54142099110231
  O   7.24438950364951     -0.46441775307948     -0.10734073884925
  C   5.12379611042464      0.79494732609844      0.23883571661072
  O   5.45220624257066      1.82777809595635      0.81294310768863
  N   3.74382644754441      0.36527974642978      0.30863631287296
  H   2.61018105091298     -3.88195892819810      0.56304522398344
  H   5.79272350428684     -4.51519526087186     -0.94379953394661
  H   7.65926223520084     -4.65207910323949      0.45103344212623
  H   6.67723060706874     -3.89085612671279      1.72798295109616
  H   3.16325616697502      1.03401628499065      0.79186927428983
