19
Coordinates from ORCA-job 15018optt
  Br  1.00447401905796     -0.18619946530252     -0.07123129417465
  C   2.87957262186380     -0.01281169926818     -0.07557262825739
  C   3.50354968254789      1.22354108685540     -0.07630113082721
  N   4.92108993797318      1.21255184004638     -0.07870496932132
  C   5.43948689345380      2.53493390777298     -0.07950214611966
  O   6.59251446562763      2.87100806889832     -0.08170754424302
  C   4.23546165320920      3.37932111253832     -0.07721635232183
  C   4.07746080287855      4.70738676557163     -0.07664416816424
  O   2.86098627614530      5.23657434228645     -0.07484317363599
  C   1.66804783397674      4.38819492475898     -0.07403694865733
  O   0.65010082154209      5.02318708565336     -0.07342581083408
  N   1.82017849171855      3.05543183546387     -0.07401239780085
  C   3.05878695419082      2.56163996888985     -0.07553445844209
  C   5.69922877564068      0.01371179949737     -0.07989946364460
  O   6.90398922350845      0.07552321590811     -0.08065731979480
  N   4.99716032837731     -1.17018652871901     -0.08012020857350
  C   3.68158387630057     -1.15331182399497     -0.07794241521440
  H   4.88323398414987      5.43220941242915     -0.07762650819295
  H   3.18509335783759     -2.12070584928551     -0.07802106178010
