25
Coordinates from ORCA-job 15017optt
  Br  1.97229135593118     -0.92643531024657     -1.12364857640224
  C   3.54092870591704     -0.08141042324647     -0.45239658514595
  C   3.42994398852644      1.23841402939036      0.10065724916978
  N   2.25042926344508      1.87310693480808      0.10638972933888
  C   1.84488716431884      3.07675772133725      0.34681948994520
  O   2.59645765433271      4.19856262350003      0.73580259211928
  C   3.95067675175006      4.10852667581648      0.40251586285816
  C   4.61645723527480      5.43746588250097      0.64504533965582
  O   5.99545714437081      5.29421580723787      0.31962636585807
  C   6.67889464205925      4.35231679985961      1.02668915138844
  N   7.93721219698974      4.32009899815593      1.06749584123456
  O   5.93721441478374      3.51020792641705      1.74399021909385
  C   4.65529295823217      3.06507726645947      1.28087383170439
  C   4.70498636190046      1.72529939700280      0.59558792790328
  N   5.84823712793985      1.09847909893183      0.52248582703599
  C   5.89424305885721     -0.11923016614920     -0.04811050890968
  C   4.73844590783294     -0.74054410182529     -0.53359442923240
  H   0.79311643943278      3.32219961992904      0.35711145771224
  H   4.06664574834267      3.84438071078375     -0.65566096282049
  H   4.49725507885357      5.74407046130364      1.68853814882869
  H   4.22182544502645      6.21145576482635     -0.00889687326922
  H   8.29882694261793      5.11260041681137      0.54464027580375
  H   4.05426773990205      2.99108637265660      2.19294617565856
  H   6.86074041143837     -0.60246728798510     -0.10810377149487
  H   4.78826626192379     -1.72923521827587     -0.97080377803409
