22
Coordinates from ORCA-job 15019optt
  Br  1.04390265046067     -0.06847494047941      0.37389539111481
  C   2.93867700519859      0.04519544370663      0.17665841139142
  C   3.54351816455939      1.30763530135843      0.08535266844518
  N   2.70030142046963      2.39251432762300      0.15762526318452
  C   2.94887512510771      3.63196924364413      0.14650567789620
  O   4.07978686486545      4.35423634768245      0.05308540831012
  C   5.34195810214894      3.88614973680609     -0.18235618949259
  C   5.72814966016226      2.54310918498256     -0.22757453189857
  O   7.07153649444132      2.26465401688600     -0.45218319307106
  N   8.02377998969762      3.22043170051586     -0.63460969561080
  C   7.64755479667911      4.43539440601530     -0.59793989281309
  C   6.27851490628550      4.92869917122497     -0.36589119649407
  O   6.05880735138558      6.14722931177648     -0.34179001361617
  C   4.97579808234133      1.34179411371593     -0.07619178539132
  C   5.66492814124080      0.09854484276256     -0.09845044752782
  C   5.01514213595986     -1.10476516454360      0.00646262128284
  C   3.62322906585132     -1.15326731939194      0.14187706121448
  H   2.12305522527432      4.33022937493975      0.24107355985192
  H   8.42990967299925      5.17101509945926     -0.74932683236017
  H   6.73837765532402      0.10599729429163     -0.20528511045651
  H   5.58534866409375     -2.02552226682891     -0.01583992569951
  H   3.08984882545348     -2.08876922614723      0.22190275174019
