23
Coordinates from ORCA-job 15021optt
  Br  1.40874705307586     -0.20702823123947      2.16819312375588
  C   2.60745995445881      0.03204811001845      0.69563418089734
  C   3.27153764311597      1.27453642511334      0.60151674012310
  N   2.94932993041125      2.39551991033466      1.39336405436681
  C   2.23031632699829      3.37716616732244      1.12079933684568
  O   1.34935304639413      3.63879198322193      0.06932216670308
  C   0.53127197324557      2.58581099144264     -0.29106504495052
  C   -0.69687423750970      2.36140635562424      0.25940349266859
  S   -1.20052498362349      0.75573965220172     -0.06883505826812
  C   0.24808754512426      0.38956514398745     -0.93676818181262
  C   0.90020789752503     -0.98808743438675     -0.92973817575525
  C   2.35109212491554     -0.69218510169254     -0.51758983831829
  N   3.19500751686300     -0.75979210471503     -1.50377586964582
  S   4.72432663122835     -0.05906265409911     -1.21571726253583
  C   4.27653508877618      1.46411328873434     -0.37870122928928
  N   4.81310604724757      2.61835553388811     -0.67035828030078
  C   0.99412856140277      1.52137421896575     -1.08914668369159
  H   2.23324709090113      4.24444160893529      1.77687630340970
  H   -1.27650028250563      3.02299492624944      0.88088776529299
  H   0.91829538339724     -1.47809515819930     -1.90190531213093
  H   0.38160892865070     -1.62498669030402     -0.21253774429237
  H   5.46010459259778      2.50617033091449     -1.44745918585332
  H   1.96913616730936      1.53320272768192     -1.55239929721844
