22
Coordinates from ORCA-job 15026optt
  Br  3.22129135932106     -2.48260138183543     -1.82294831022005
  C   4.29612281409531     -1.51797160523175     -0.56723509607522
  C   5.47490732095068     -0.93547181564796     -1.02235313600428
  N   6.07967460994157     -0.09497074043401     -0.03197361670629
  C   5.88382013025699     -0.49532132268229      1.27023507156233
  O   7.04767417810923     -0.41186264395271      2.08542332342419
  C   8.01986449095969     -1.03324869380802      1.39569625410989
  N   9.15348195348393     -0.59621471812574      0.99324209306072
  C   9.49043348848259     -1.46055555407730     -0.06289407856923
  C   8.48652830642889     -2.34923422341722     -0.22796549000698
  O   7.60184682554712     -2.15819919797988      0.78579922575093
  O   8.09674915202242     -3.19988541776053     -1.16394042850576
  C   6.68883936172695     -2.98480684575360     -1.55854535669702
  O   6.42063523871054     -1.65724959301412     -1.83210457611352
  N   4.85040273925270     -1.04658468910370      1.71267025963143
  C   3.80299022008845     -1.30151423416002      0.75373553874481
  N   2.57320668322104     -1.41983868697413      1.13758740809811
  H   6.95755969798457      0.34049013346862     -0.27312546904353
  H   10.37192606102032     -1.31760346240118     -0.66016155332444
  H   6.61011146713313     -3.58341662908331     -2.46274199404569
  H   6.04513635547533     -3.35727038868123     -0.76086832363869
  H   2.54979754578724     -1.30666828934444      2.14846825456828
