23
Coordinates from ORCA-job 15029optt
  Br  12.41032478716134     -5.56149002630840     -0.23824279286915
  C   11.07034235106644     -4.30152963851378     -0.75174107372812
  C   9.74347971544078     -4.62526230405782     -0.57374026790956
  N   9.34446549278832     -5.85371614299629     -0.03300893337788
  C   8.07774405559899     -6.34786231809355      0.02460157015254
  O   7.85481618957968     -7.47810753908916      0.40548001959365
  C   6.94632694847197     -5.42083176691767     -0.42558499416418
  N   5.94179583572862     -5.34423123784304      0.65287839830200
  C   6.02305429424297     -4.16015287789592      1.08986170429873
  O   6.85133055793874     -3.28112978069323      0.52179044274424
  C   7.33842114809436     -3.96234942504913     -0.70734992024706
  C   8.76209033155451     -3.70137268033131     -0.97132186488207
  N   9.09046721171112     -2.52144723231018     -1.55927383848803
  C   10.34958491550496     -2.22948456339605     -1.72153445458654
  C   11.44878085825351     -3.05524256213359     -1.32607309395495
  C   12.78171567986348     -2.59394806364470     -1.53660181914019
  O   13.08314348662538     -1.49148836040928     -2.02513702518502
  H   10.06815760823261     -6.50639900413094      0.23640956384044
  H   6.50477204841523     -5.89320866644089     -1.30406987706905
  H   5.45152379608215     -3.78483372085836      1.93194821129126
  H   6.72815062247248     -3.53588595774027     -1.50596457527153
  H   10.59590312632356     -1.28678364593343     -2.19781930488496
  H   13.58360893884860     -3.28724248521292     -1.23450607446454
