21
Coordinates from ORCA-job 15025optt
  Br  1.14968549217770      0.24365805057494     -0.51577828120272
  C   3.01513119498237      0.05993198153833     -0.20019166990527
  C   3.59142511982568     -1.17061928095806     -0.27880560164042
  N   3.12075720819627     -2.47850051983130     -0.53933956237078
  C   4.26048267336225     -3.23992745786649     -0.27530229242171
  O   4.27837594387847     -4.59979338492416     -0.46193941003684
  C   3.22778081403135     -5.30836285570127     -0.09475470040343
  N   2.14660111723922     -4.95632116204883      0.51051291221718
  C   1.43709202675446     -6.14663792899175      0.62192455777281
  C   2.14925418289000     -7.14380700188786      0.07311744250801
  O   3.32089964890381     -6.60694250792853     -0.39884402437642
  N   5.33728822695626     -2.59923955095362     -0.07232399558076
  N   4.97907920438251     -1.27980087409170     -0.14537354300654
  C   5.75131989345189     -0.19584009393945      0.48827472068029
  O   6.87763088162074     -0.47906229255273      0.86376445287236
  N   5.12714004829375      0.97616391521973      0.54808196551300
  C   3.82748945497811      1.13860024195119      0.15537025077728
  H   2.25268833092859     -2.77869101980336     -0.11008025339635
  H   0.46961882666502     -6.18548552885256      1.09146994504793
  H   2.00930884501986     -8.19945658548171     -0.06302325905371
  H   3.41895086546159      2.14013385652928      0.18224034600610
