20
Coordinates from ORCA-job 15033optt
  Br  0.94522210851389     -0.10569119230101      0.14727625205117
  C   2.79300943038483     -0.10587454486679     -0.46176239289438
  C   3.56940042598055     -1.22700055902156     -0.21859191299640
  N   2.96319333368059     -2.49262059385343     -0.07409100920121
  C   3.57196574859832     -3.68276574007954      0.10997791013736
  O   2.99010822811587     -4.73513385197973      0.28097340652956
  C   5.05160995503540     -3.56511713234111      0.05633718807090
  N   5.86664017933345     -4.55459386388256      0.10426400165582
  O   7.12976093731858     -3.96697249012496     -0.00446270141349
  C   7.03539358389668     -2.60486751952631     -0.13973403756546
  N   8.00646846367886     -1.82229311760056     -0.30428307257196
  N   5.66701012446167     -2.34493800967435     -0.07839503981817
  C   4.96617636475975     -1.10929081693935     -0.09855569737313
  N   5.68546564458370     -0.01794327090305      0.04764945167590
  C   5.15211668050476      1.21873398108432     -0.03045243793018
  N   5.71869568056672      2.31994043583290      0.28621157044895
  S   3.50330824741685      1.43976805439686     -0.76158332610851
  H   1.95137512955740     -2.51493429436324     -0.06708133721778
  H   8.86723700117365     -2.36367778434835     -0.31612819756455
  H   6.66584273243837      2.09927231049183      0.59643138208558
