21
Coordinates from ORCA-job 15032optt
  Br  1.16128019697805      0.33046801901748     -0.93288957583845
  C   2.97941434300806      0.28333030161252     -0.46628921189757
  C   3.70710395948053      1.36734858997328     -0.19270589043624
  N   3.38313590247785      2.76432952099262     -0.20403785672645
  C   2.33136963231758      3.38464916000042      0.44011638639767
  O   1.40221416655341      2.83527741509593      0.96528874240591
  C   4.61747318719142      3.41335678083312     -0.33906824338294
  N   5.07148316903722      4.61638453325301     -0.42590188159800
  N   6.42221340012995      4.42387452324934     -0.27466772767702
  N   6.81393789695556      3.09391790130242     -0.25593845190478
  C   5.66216479863523      2.46693514018160     -0.23042437614631
  N   5.12205562703963      1.23268556317058     -0.07781294213189
  C   5.76687430741280     -0.03288249577355      0.17508743220628
  N   7.02004785601326     -0.08555303226795      0.54182154401180
  C   4.93398054564089     -1.17900122818181     -0.01870271567680
  O   5.23564380705124     -2.36104306408654      0.17700017661628
  N   3.59800895545523     -0.94256325640096     -0.53240687794459
  H   2.45848514173626      4.47745973541803      0.40823098529336
  H   7.00488828506282      5.03803418762618     -0.82433537096266
  H   7.40676917038208      0.85184760005620      0.62154073755381
  H   3.01945565144084     -1.76185589507193     -0.42590488216139
