18
Coordinates from ORCA-job 15030optt
  Br  1.48957867338534      1.17609812353118      2.24591049900241
  C   2.52775427944229      0.82696816593506      0.68547738022302
  C   3.43234681596052      1.82679786295474      0.23586280476785
  N   3.19927265474725      3.17029304209972      0.15060998090541
  C   2.33668452342487      4.04530564178609     -0.01024577047956
  O   0.87794673314226      4.03408152331482     -0.09174443993772
  C   0.20974971067726      2.90976654539838     -0.24952962307487
  N   0.68347970741499      1.82514945287708     -0.75097406318862
  C   -0.15606801889313      0.79661727727116     -0.43083135009428
  S   0.54564776414878     -0.82975343956995     -0.43081479171958
  C   2.25864983520696     -0.30000133241563     -0.13927496501612
  N   3.13776476620780     -0.88636358933954     -0.87715477207882
  S   4.73768567861136     -0.38336668486209     -0.72310923441014
  C   4.70106587160787      1.38804784507860     -0.28775905481501
  O   5.70087528966154      2.03087552231346     -0.52960540338436
  N   -1.33820004472831      1.05232164852845      0.05603112784937
  S   -1.42068779753121      2.69235015596711      0.31892101333967
  H   2.57545355751353      5.09781223913134     -0.10776933788866
