23
Coordinates from ORCA-job 15035optt
  Br  4.22634382127624      1.44041175191479      5.08809274334518
  C   2.56177021068727      1.74308524675022      4.27080328491147
  C   2.48536527011938      2.14463548594690      2.90877378214968
  N   3.57910307435263      2.28301792480027      2.19444103712056
  C   3.86871452539165      2.56200326284721      0.96012354413469
  O   2.99197000132906      2.94875780495700     -0.03473488089559
  C   1.92579026967710      3.72877689092218      0.46346739712588
  O   1.25604773285297      4.31273746542885     -0.60708210921954
  C   0.01239648471308      3.65612706475097     -0.83094050693738
  C   -0.19759396831614      2.80634286819863      0.38246427371575
  C   0.89602184178322      2.86437795068994      1.14198234413303
  N   1.15361972793522      2.26647728655435      2.36186331014417
  N   0.08873315234808      1.55934209682382      2.83245097073201
  C   0.04605072858597      1.22056621276169      4.05396569361315
  S   1.21219114259886      1.73428087062402      5.27894465999087
  O   1.31445274293507      0.71266934049479      6.29769399239897
  O   0.73630824859124      3.02642479781801      5.73371094337517
  H   4.88945012134773      2.51265463955727      0.61140755351149
  H   2.34270796922325      4.50826337549473      1.11048519790590
  H   0.06316900070158      3.06852055358122     -1.75588156250272
  H   -0.75316505628777      4.42685719938644     -0.96282252855698
  H   -1.08887059937208      2.23746434005083      0.58704814772131
  H   -0.79757644247362      0.63420556964584      4.40174271208291
