28
Coordinates from ORCA-job 15045optt
  Br  3.11511319298917      1.29711409824520     -2.79334252059766
  C   4.20565190046615      1.59819621617457     -1.18311052288108
  C   3.56767298131759      1.60962588148782      0.02338236129587
  N   4.29275891583365      2.01263784890381      1.16695659901885
  C   5.67167338618745      2.33010943192458      1.11084332486710
  O   6.12262931337234      3.08423523546777      1.95859213525370
  C   6.27598225370067      1.64771956347461     -0.06999517063708
  C   5.53906890000602      2.06434159484321     -1.25512734070092
  C   5.77868163905188      3.33456384162130     -2.02318567552000
  C   5.34356715884748      4.61496087853510     -1.28253439833514
  N   3.94476500977060      4.56800035007408     -0.86000037111463
  C   3.74408184623385      4.72167397112348      0.36797378885998
  N   2.48359572760908      4.63850951225526      0.99524705977963
  C   1.38634458795332      3.82865084540632      0.79034250554044
  O   0.41758433620343      3.96183733165638      1.51514030104149
  C   1.42807261415031      2.72620473670500     -0.25950646590332
  N   2.16984157176018      1.53875223378423      0.17426195985429
  H   3.76609834112026      2.50400240602248      1.87863756820067
  H   6.08050604676681      0.58085230758437      0.09929324633161
  H   5.23291442388966      3.28927160165022     -2.97037846536299
  H   6.84256311164875      3.44492094028709     -2.24994900452129
  H   6.00883106953787      4.77153204888133     -0.42344504453179
  H   5.44891632948703      5.46787017552093     -1.96115383734655
  H   4.54282187877077      4.92628921104438      1.08850878091071
  H   2.39951737991350      5.16100217259965      1.85608239251121
  H   1.86834506152568      3.08906209751894     -1.18450794908185
  H   0.38799980527824      2.45354992496390     -0.43451290786020
  H   1.87440121660819      1.20751354224393      1.08348765092896
