24
Coordinates from ORCA-job 15055optt
  Br  1.10327892469088      0.47528042443612      2.74210283889615
  C   1.92344336954594      0.49986793458684      1.01334635240096
  C   3.16623402096667      1.16401575583514      0.90127797650882
  N   3.82234078343321      0.96857097982945     -0.32982554552069
  C   3.27105106242981      0.41766560238384     -1.48234367729434
  O   3.94580873102573      0.38236526174358     -2.51431238141338
  C   1.92845805774819     -0.06050452076236     -1.32814777479152
  C   1.28611352726117     -0.04307494389988     -0.08574139058912
  C   -0.16458313814203     -0.42609078018715     -0.01867223288312
  O   -1.03595226308407      0.68993088994758      0.24732337240262
  C   -0.72837941409020      1.90594130201476     -0.32913273368618
  O   0.07183982083380      2.69852844390353      0.56913036272170
  C   1.29457608563572      3.05319258821288      0.15287200906406
  O   1.62816340588332      3.17138950159725     -0.99034417122313
  C   2.24804054949051      3.38946532145240      1.31629080070117
  O   2.11187716730649      4.40690807895032      1.96082883830432
  N   3.25259541036950      2.48710858647644      1.46525229187441
  H   4.73866065851947      1.36764441108370     -0.46186281715960
  H   1.42452834126504     -0.41893121783674     -2.21406772544294
  H   -0.46369405788824     -0.88123655060164     -0.96682086438240
  H   -0.36882573059157     -1.12545592441504      0.79180667944969
  H   -1.66571878849694      2.44482772101986     -0.45235915208013
  H   -0.19094396497541      1.81047282945064     -1.27410999646539
  H   3.88808744086298      2.68611830477845      2.22450894060808
