22
Coordinates from ORCA-job 15051optt
  Br  1.70125228009931      0.03021850608614     -1.74582635106408
  C   3.26587789485297     -0.04917990256955     -0.65865156272440
  C   3.59680368391321     -1.18712288081253      0.08498343510570
  N   4.95231613747998     -1.27154168509885      0.54962964548494
  C   5.69858734452358     -0.06611505322660      0.81211775133677
  O   6.70775244587676     -0.10822553539820      1.51875363727902
  C   5.22648111815357      1.08620111419339      0.13798476389844
  C   4.09348824741924      1.05548250213409     -0.66610233522399
  C   5.61863084959114     -2.49691723744631      0.60933933783787
  N   6.71386894748868     -2.79580355670902      1.17243531224784
  C   4.97384630953261     -3.61800571715045     -0.16183685668832
  N   3.79787870653512     -4.05577053553815      0.04215145234353
  O   3.16122114111437     -3.33616432686141      1.07333453666501
  C   2.63300003081977     -2.11800210166327      0.61484760611276
  N   1.38667826522620     -1.90448561608285      0.74946657222395
  C   5.76312796183061     -4.28362664441681     -1.15746157103949
  C   6.43422747525416     -4.81382744857418     -1.99530973287549
  H   5.82713197480115      1.97708591007280      0.24391485278888
  H   3.82923734238632      1.91051274713938     -1.27433582087940
  H   7.07572223508499     -1.98429144143976      1.67206655774082
  H   0.93979602958347     -2.76598530403762      1.05803381209624
  H   7.03307357843268     -5.28443579260023     -2.73653504266659
