27
Coordinates from ORCA-job 15053optt
  Br  2.39880435576088      2.06321641571254      2.15688048556884
  C   3.73009784684943      2.07701702510181      0.77993593551053
  C   3.36328213838947      1.55317507142576     -0.52413274741852
  N   4.50920014578309      1.35209759631495     -1.32949066363594
  C   5.74876222590243      1.97213057222537     -1.19065048890089
  O   6.62616496422835      1.77012891917673     -2.03878249352963
  C   5.84241475315237      2.85595475723726     -0.06562141729894
  C   4.83198736788863      2.90538396756095      0.89849397807817
  C   4.82654342378176      4.05852878561388      1.88160884453111
  O   3.80387401053235      5.01267838512333      1.56536951120005
  C   4.04266007561847      5.86449662722887      0.46408540275429
  C   2.74312995120240      6.14880201654793     -0.31800703088253
  C   2.16569124783312      4.86264781644045     -0.84960678224395
  C   2.92608529717733      3.83598383257769     -1.28010606716571
  C   2.34198156193315      2.53919277722078     -1.06221931929288
  C   1.02404884684539      2.64272367719202     -0.74237885551353
  S   0.56297748032737      4.29412359514793     -0.49492516124570
  H   4.40134729550069      0.86499056463356     -2.20627294652044
  H   6.71153915787303      3.49583094001438     -0.00444678019476
  H   5.80636766409184      4.54910383263873      1.87985038389183
  H   4.59579287717644      3.73168707179802      2.89409225419420
  H   4.45219393718310      6.81746354898084      0.82746577059949
  H   4.77965581951333      5.42110085480790     -0.21076136351762
  H   2.98281300698556      6.86375703332305     -1.11147933213846
  H   2.02458340027695      6.63157648905617      0.34774834525830
  H   3.98090698609141      3.93811613487657     -1.49113625506256
  H   0.35709416210151      1.85209169202239     -0.43751320702474
