23
Coordinates from ORCA-job 15058optt
  Br  1.31962608682299     -0.37589454677627     -2.59472954128197
  C   2.27669139057888     -0.10337818236429     -0.97785235072119
  C   2.92441962415314      1.07374714845770     -0.80752665728669
  N   3.63208573173273      1.33348857959777      0.34322807288001
  C   3.87544374945406      0.31627976194485      1.33295888605551
  O   4.74522237761703      0.56410527112174      2.17542918143997
  C   3.00972074032764     -0.78525791766674      1.23613659598296
  C   2.09217339790638     -0.94689239880929      0.15279081932511
  N   0.78058490660198     -1.44646907420256      0.38514524786228
  C   -0.40687834872629     -0.75043343767923      0.34661558550845
  N   -1.49524824021849     -1.37041970795764      0.64145659453628
  C   -0.36925258284208      0.65043402255863     -0.16577182422165
  C   0.59572590786017      1.51721753677288      0.11527425603402
  O   0.72697245771230      2.69799785484293     -0.61605313915905
  C   1.70358315459374      2.98188419621161     -1.50764084485879
  O   1.63564525144375      3.96720799152063     -2.16815031324508
  O   2.78569978702519      2.16005898392359     -1.64371382485265
  H   4.30188383147276      2.08794504744810      0.33270998091893
  H   3.01302520292377     -1.48437141656053      2.06230226031440
  H   0.68217995541645     -2.36016232699025      0.80375779180420
  H   -2.28190437549992     -0.73454829930974      0.55787221864366
  H   -1.08214086446207      0.88507099486809     -0.94678183288578
  H   1.30374085810585      1.40238991904797      0.92554283720707
