23
Coordinates from ORCA-job 15061optt
  Br  2.02782810949498      0.90263114796007     -2.77337023430927
  C   3.39517402733991      0.47794457391556     -1.52644592165918
  C   3.14560973463021      0.59791967449432     -0.17912880311621
  N   4.25977494457220      0.41433338628087      0.61909533951521
  C   5.27661551741396     -0.48571855709442      0.35035955017998
  O   6.14014525346875     -0.72362596266645      1.17320131832462
  C   5.14003329062061     -1.11332384341608     -0.98415085397527
  C   4.44227166968563     -0.38525578044240     -1.93781804436232
  N   5.49825978009718     -2.41142235245226     -1.15816211431566
  C   5.11503231340611     -3.30559360056659     -0.26581731729724
  O   4.13879917419369     -3.09195166503149      0.73248904681557
  C   3.19894681524747     -2.16282690088139      0.54158701546850
  C   2.44587630737419     -1.59257360822450      1.51309404156756
  C   1.67709392344633     -0.37859290956137      1.27676179836612
  N   1.90902701982521      0.59320820929015      0.43312649045930
  C   5.61306616863195     -4.64481869064849     -0.27731361493636
  O   5.24659258468759     -5.56355975555284      0.45450879440275
  H   4.13195496396591      0.57892626445546      1.60946457898074
  H   4.44196804185305     -0.73996037797957     -2.96065086013764
  H   3.05500197161593     -1.84228449408637     -0.48204088032381
  H   2.44838494442861     -2.01267404899003      2.51250937880065
  H   0.77385720056049     -0.25724432006336      1.87286591911581
  H   6.39768624343998     -4.78853638873881     -1.03916462756384
