20
Coordinates from ORCA-job 15069optt
  Br  0.93278446331002     -0.07080217682676      0.03084958073103
  C   2.80526067655898      0.03679966223905      0.03087530170435
  C   3.49279535848497      1.18441601707510      0.02934038994287
  N   3.09908311031783      2.49852948923229      0.02741726157465
  C   4.22593467424405      3.34514344598132      0.02662679205340
  O   4.14414010424433      4.55845832799934      0.02532008183508
  C   5.38371862446806      2.45457855819422      0.02795928635055
  C   4.94386251924638      1.16941036019198      0.02959286508081
  C   5.60258654659494     -0.11028952340263      0.03137790890956
  C   4.77822855311121     -1.21239960205947      0.03270965873247
  O   3.40992646062735     -1.15814704893655      0.03255496650273
  S   5.33727865638099     -2.86024955925268      0.03473380905233
  C   7.13913522624250     -2.63086641646914      0.03542634331872
  N   7.85822103369196     -3.70453478424120      0.03745288539340
  C   7.60189962642317     -1.29614423702991      0.03348823531629
  Br  9.51675935452903     -1.12628872602464      0.03397564564943
  N   6.95511627045490     -0.14455649492093      0.03160178182941
  H   2.15343269720198      2.83836208446435      0.02733187040001
  H   6.40560841892361      2.79154343487259      0.02769035316413
  H   7.28022762494371     -4.54096281108634      0.03867498245879
