22
Coordinates from ORCA-job 15062optt
  Br  1.93245962587409      1.05554771655347     -1.98102219543150
  C   3.48547994412517      1.17830686441783     -0.87615111745128
  C   3.37944149565558      1.34337910065781      0.52028209975498
  N   4.53232372205839      1.48224718535861      1.31036849424772
  C   5.81944186856215      1.73896542941407      0.75067366171729
  O   6.65512184773496      2.32003684163573      1.38668222622873
  C   5.77781317824479      1.10429670325557     -0.60291903274497
  C   4.72956542320892      1.67429092223904     -1.33421819674508
  N   4.75163408512607      2.81926721108038     -2.12258392587016
  C   4.26107719122072      3.92038488541274     -1.76979952647204
  S   3.68751550886214      4.34330628655724     -0.09441043842309
  C   1.95717089640814      4.32035439688666     -0.31680749813503
  C   1.05600954093329      3.40820972109271      0.25101229454338
  C   1.19939694111516      2.18901883033575      0.96245110153290
  N   2.24667640237792      1.43286919618530      1.22135603029329
  C   -0.31838669879416      3.81702979056896      0.13631755616134
  N   -1.41541252847178      4.15402558876449      0.04052552434189
  H   4.34446116685772      1.94695651040729      2.19053365938062
  H   5.49337986849491      0.07488999819760     -0.38368400032404
  H   4.18172458150698      4.72343220138608     -2.50062793230600
  H   1.53055123054751      5.18341845416935     -0.81008066716243
  H   0.28255470835129      1.85876616542331      1.44510188286349
