24
Coordinates from ORCA-job 15067optt
  Br  1.08551896835555     -0.11808820214827     -0.48492087444562
  C   2.99723136715180     -0.07708390711956     -0.24486512802261
  C   3.61055434465341      1.13643761353834     -0.20006660311747
  N   5.01153976685000      1.16802356453588      0.00913294144299
  C   5.51815623729351      2.44566429171641     -0.00621740197274
  O   6.65073093770586      2.82086221437890      0.18791268490348
  C   4.35837040684117      3.37211716876612     -0.36732465096011
  C   3.07819225186903      2.52937737517491     -0.24212455565778
  O   2.34808878588578      2.84282024581451      0.95115890665480
  C   1.39777189966150      3.85063156130098      0.65224539694642
  C   0.88227454870032      3.51789388171515     -0.74267516862176
  C   2.10278778713528      2.87583580174447     -1.37549991440609
  O   2.32270959120655      2.75484994306576     -2.54642841845856
  C   5.75166497016650     -0.07009055219095      0.16208632127106
  O   6.96024177002792     -0.04858400616750      0.34653484148420
  C   4.92715001805692     -1.22303845406632      0.06542940182990
  N   3.59066158633243     -1.24580022612324     -0.12765877583072
  H   4.51495885734156      3.69734094639224     -1.39804386889516
  H   4.34584499425451      4.24210825652225      0.28690578295259
  H   1.86959370194948      4.84221133960523      0.66683864864886
  H   0.63256857965915      3.81735979206725      1.42528122389853
  H   0.54233682740525      4.36734258244689     -1.33150227282282
  H   0.09655684410501      2.76286266698264     -0.69837994026001
  H   5.43549495739144     -2.17305389795211      0.16318142343862
