23
Coordinates from ORCA-job 15065optt
  Br  1.26261147929455      0.96534426293931     -2.44972482798363
  C   2.48353367349095      0.94064749007547     -1.00587412623823
  C   3.55222400658994      1.85819717520475     -0.92624455129731
  N   4.67156103212641      1.39255362865639     -0.27126775189806
  C   4.68318256606885      0.34596634654627      0.66371183563481
  O   5.72070397125792      0.10684524577177      1.27831428141127
  C   3.41029027947656     -0.28578410655820      0.86429692342948
  C   2.36496584361037      0.03705786088029      0.03650167584393
  O   1.11827877878260     -0.52508704351788      0.27018723949320
  C   0.10438389242041      0.26590890792214      0.70534047579269
  N   -1.05013566085006     -0.22059053040410      0.89725030704652
  N   0.36911131668814      1.59940292637088      1.08750926656320
  C   0.45785125504971      2.67552331789920      0.10173576810610
  N   -0.51488959711948      3.08355110128983     -0.58787396402194
  O   1.64950798056615      3.26649587424356      0.11208116078489
  C   2.30354710889132      3.70070941278752     -1.07905202142065
  N   3.49870521665826      3.14061344520581     -1.29085480812107
  H   5.44474866872426      2.03961336034127     -0.19241122386041
  H   3.28317746462512     -0.93804707556015      1.71324694261847
  H   -1.03850249810150     -1.21575793742105      0.68576753017971
  H   -0.41232774795398      1.83040835428197      1.69068752185391
  H   -1.31025110142375      2.45924496897663     -0.46938220904038
  H   2.08872207112724      4.72018301406829     -1.35694544487649
