24
Coordinates from ORCA-job 15074optt
  Br  1.06895919991657      0.02118563012948     -0.20948916078999
  C   2.96682249138770      0.07278103901245     -0.07804948376757
  C   3.64195614691641      1.27829874253537     -0.06866343103957
  N   3.12689616255639      2.57355004871431     -0.11682401127947
  C   4.11767696781672      3.52873486344103     -0.03661809739418
  O   3.92647949992658      4.72298800668872     -0.05136464847769
  C   5.44065933530808      2.77825602341443      0.06388963534159
  C   5.04077248979814      1.32997373370442      0.02050632067448
  C   5.79342817870088      0.18088606330608      0.09514422997829
  Br  7.87228463242480      0.30326180774901      1.54653598857895
  C   5.09893981841185     -1.01846698226093      0.10773766836561
  C   3.71853744047309     -1.08719553158139      0.02456270562119
  C   3.29348252814192     -2.52272287866026      0.08291577528167
  O   4.46530163715365     -3.22872840209746      0.47187490128624
  C   5.62453449651545     -2.43294309343205      0.20961066755948
  C   6.28364262148767     -2.86678561006638     -1.03388199633720
  C   6.80765018178153     -3.20900677267679     -2.05561512921642
  H   2.14811419289631      2.80367957102914     -0.17488781007401
  H   5.95332023954210      3.03105549250801      0.99485386590064
  H   6.09829453126816      3.07607526935782     -0.75405269701765
  H   2.93081182457036     -2.87724656481726     -0.89061247337593
  H   2.51569060357391     -2.70610826280752      0.82759905841481
  H   6.32276716992100     -2.53753975986955      1.04249787844695
  H   7.28297760951057     -3.50198243332067     -2.95966975668021
