23
Coordinates from ORCA-job 15077optt
  Br  1.00976406926466      0.11732914464568     -0.14154961890559
  C   2.87649584344767     -0.05163875721461      0.05774276605161
  C   3.52660620028445     -1.21836965447523      0.05311786237444
  N   3.14236293197989     -2.52644922749406     -0.04533167666236
  C   4.27726704805311     -3.39330115103147      0.04944412425576
  O   4.14741308132378     -4.61630504154345      0.03820678249548
  C   5.41458244413573     -2.53714968105666      0.13780850050277
  C   4.97597558856227     -1.19978675215198      0.12717208829273
  C   5.56113090746851      0.05922937120587      0.02613284222398
  C   7.05675109833730      0.20985146630180     -0.07751309112909
  C   7.68686255827028      0.34448386844289      1.27245832653184
  C   8.61977939937043     -0.41632185210578      1.88361683255525
  O   8.89636117769810      0.05499316554632      3.10837943079372
  N   8.12396215078232      1.16842332222651      3.33744965028187
  C   7.41203502619039      1.33379640594627      2.26263792942982
  N   4.91903247574384      1.21951050076278     -0.00543708262137
  O   3.50502970278815      1.14938534957223      0.20887221477413
  H   2.19829768103983     -2.86844670377049     -0.01191791469522
  H   6.42432427176080     -2.90697460189291      0.20026346706052
  H   7.27172193480649      1.09970174098299     -0.67279564216684
  H   7.47395977068594     -0.65695828221768     -0.59295032702116
  H   9.15315830864933     -1.30383050931925      1.58475629532671
  H   6.70012632935660      2.14282787864025      2.19943624025101
