23
Coordinates from ORCA-job 15076optt
  Br  1.57699080707059      0.03433137652837     -0.47260812788978
  C   3.45202269773884     -0.01731238544173     -0.21781387859504
  C   4.05111225153330     -1.22343339462109     -0.13915226410366
  N   3.55350674895641     -2.49242934119550     -0.21852859233281
  C   4.59607009908254     -3.44472454592052     -0.05937415650190
  O   4.37896959069899     -4.65012148820138     -0.09445241287359
  C   5.79394868420162     -2.67713820492724      0.12791600446965
  C   5.48101860732085     -1.32604053515517      0.08272497424595
  C   6.18270198488172     -0.12699877377275      0.20651543415458
  C   5.54050510641134      1.10948627101771      0.12135879429321
  N   4.16107167958398      1.15699175076112     -0.10721535037954
  C   3.55135058972814      2.42566146551040     -0.22640770306693
  C   4.31127009251083      3.55133372055549     -0.08850163345121
  N   5.61843917901757      3.58565674561752      0.15719127451630
  C   6.21960564385209      2.35875913957409      0.25838362049101
  C   7.60869942886301      2.33593581456332      0.52719025833494
  C   8.79316963708972      2.30934474611077      0.76372335675406
  H   2.59423246999484     -2.74905264603378     -0.37034924026864
  H   6.76271436124976     -3.12065319156789      0.28261001245130
  H   7.24759974606199     -0.11889522891666      0.38339077903507
  H   2.49915637173867      2.44457972285420     -0.43544324936274
  H   3.80695280111822      4.50782083473053     -0.19006424660158
  H   9.83289142129494      2.29589814793020      0.97890634668136
