24
Coordinates from ORCA-job 15085optt
  Br  1.17577947759120      0.17773483154974     -0.24908383227574
  C   3.04332547055377     -0.01028241534000     -0.06313514346343
  C   3.67651920171660     -1.18652197672014     -0.11281454536133
  N   3.24937347156975     -2.47325245544951     -0.28134234145002
  C   4.33398453716745     -3.38737413041285     -0.08571291412339
  O   4.14606449063948     -4.60202138738148     -0.09632584869081
  C   5.49538907182266     -2.58407486338029      0.09657620761783
  C   5.12635976257195     -1.22064485243303      0.07096235314824
  C   5.76018553231765      0.02482155171685      0.10343263485015
  N   5.12753257064842      1.21019180934219      0.10470946244786
  N   3.74321323753412      1.15981382829238      0.28056221058970
  C   7.21230831042594      0.14269615365694      0.07475445832265
  C   7.99835333440645      1.19209191230841      0.38264123405277
  N   9.32010403498403      0.80651583533902      0.12829721800181
  C   9.37360912706675     -0.48870092409550     -0.34547877435068
  N   10.37024583218143     -1.22107052978329     -0.70927127286857
  N   8.06019469187886     -0.87912952162021     -0.35653183495036
  H   2.29162280127508     -2.77602411189051     -0.24256356811890
  H   6.45694407303843     -3.01754605443688      0.31288318304101
  H   3.32945733091981      1.99998160269885     -0.09670638846554
  H   7.72313253356262      2.16438890992380      0.74453320010051
  H   10.13723488707419      1.36767627233284      0.27122746993368
  H   11.24023254670979     -0.70793475267341     -0.61680015829781
  H   7.75383367234345     -1.76033473154389     -0.73281300968963
