21
Coordinates from ORCA-job 15083optt
  Br  1.11756752238014      0.01950957544839     -0.38448112773015
  C   2.93579283265240     -0.13422406494860      0.29307154875061
  C   3.61683203781198     -1.36141681518425      0.14396983466994
  N   2.94950302554840     -2.56607865357938      0.26448829278915
  C   3.58310348641777     -3.63253802609621     -0.00739984380648
  O   4.88858905885184     -3.70823694749982     -0.39998815259860
  C   5.70404971228904     -2.63499332589135      0.06048437341793
  C   4.99768200792925     -1.31765448763189     -0.03934585693135
  C   5.68584789694538     -0.13046663596889     -0.18518971558686
  C   4.98829395928206      1.11230911524840     -0.13451148680675
  O   5.44596212524698      2.22558138184305     -0.27166030900473
  O   3.61955898585442      1.03779830874859      0.13278650972207
  C   2.92908704389398     -4.93719304228333     -0.00422754958263
  N   3.55354849903563     -6.07849634460789     -0.26951797949750
  N   2.56704628324703     -6.94278340028759     -0.15115419504218
  N   1.40801147485412     -6.41328708081876      0.16294789609316
  N   1.60819376816140     -5.14266243877414      0.26126696212624
  H   6.60439340979151     -2.65207131468896     -0.55223556006266
  H   5.99141496255035     -2.83180353952290      1.10403887154629
  H   6.75452682842260     -0.09001420743247     -0.33804010591964
  H   2.68499507883364     -7.93227805607196     -0.29130240654585
