23
Coordinates from ORCA-job 15093optt
  Br  1.89300205542428     -0.75568300463206     -1.63580071566305
  C   3.35697671347911     -0.34877343990427     -0.49747592253996
  C   3.78511345430424      0.98387828913264     -0.24770873872334
  N   3.32618830199741      2.24268274174107     -0.73145036587483
  C   4.45582459005853      3.20555718112567     -0.62288477415000
  O   4.32699467290195      4.37309996383780     -0.97557217492448
  C   5.52427640464994      2.48634069195036     -0.05307449768803
  C   5.09758809211863      1.17550754779037      0.16781532576960
  N   5.81867525971183      0.09750394765404      0.63902327649921
  C   5.24052453890731     -1.18248674141008      0.48454360853799
  N   4.08977132863033     -1.37746454614699     -0.09878802366051
  S   1.87664664818064      2.84803593354272     -0.17890415136214
  O   0.92657235375925      1.78466037024519     -0.08053574359548
  O   2.06394047751212      3.69364844145212      0.96390731487553
  C   1.43725611842232      3.92554805020706     -1.54710404265547
  C   1.14471215674167      3.18891296555050     -2.76116588809665
  C   0.91200328802653      2.56100169095829     -3.75328521348988
  H   6.48730171946322      2.91636480651362      0.16428854140113
  H   6.82411623954289      0.16795231894716      0.61390491769113
  H   5.82727646807413     -2.01816355852968      0.83625644030241
  H   2.30011036615795      4.58625271142891     -1.65851593324787
  H   0.57166158349621      4.48421613966125     -1.18880034203396
  H   0.71946716843938      1.97940749888427     -4.62167289737133
