23
Coordinates from ORCA-job 15095optt
  Br  1.02539387255162     -0.32743645187462     -0.83195134455816
  C   2.89866919758927     -0.18601241935728     -0.57299478306851
  C   3.58356548512048     -1.26232498905699     -0.11233468072815
  N   3.23014421863837     -2.53851108219432      0.23834950669119
  C   4.35891252762053     -3.27362955249138      0.65732727948979
  O   4.29041286473700     -4.44102389459714      1.01714151992720
  C   5.47946301218307     -2.36622286159496      0.55345309225940
  C   5.00249120859607     -1.16280893561131      0.09124722162374
  N   5.60454057329733      0.02138833577184     -0.19156481682217
  C   4.91329227988476      1.10307674742526     -0.64761656138450
  O   5.58387946949494      2.21487569672896     -0.88857656846600
  C   6.91192142823204      2.40344211349229     -0.23844537441665
  O   7.77634540745116      1.50179933457430     -0.42246704188034
  C   7.28109282455140      3.84777798953051     -0.54337625634767
  C   6.32236231876114      4.82714108354358     -0.03613626862294
  N   5.58512075986361      5.61183608177859      0.35978423083312
  C   3.55191870806601      1.03226659368896     -0.84906609635003
  H   2.30258946116184     -2.92344422107129      0.20608622851955
  H   6.49171973334341     -2.63019781513314      0.80436822769067
  H   6.62164797647589      0.17818046873305     -0.12261003809244
  H   7.38828382283643      3.99983339201796     -1.62642805863417
  H   8.25015734701182      4.03304758551516     -0.08224700747980
  H   3.02007550253149      1.90794680018188     -1.18194241018312
