25
Coordinates from ORCA-job 15092optt
  Br  1.09649196454229     -0.02122250496573      0.19647291607191
  C   2.97669448800991     -0.02090335645783     -0.03961120314583
  C   3.68466917447220     -1.22707836467606     -0.05087128260991
  N   3.27406049036520     -2.53445596637652      0.02725237382154
  C   4.37207258853418     -3.41796944996545     -0.02771721089502
  O   4.24230098323523     -4.64624463717569      0.04058416701053
  C   5.52265766659544     -2.57225152547766     -0.16894158004638
  C   5.08081615017534     -1.25468797934941     -0.18073066974026
  N   5.78745870196950     -0.05565214635211     -0.33997858775489
  C   5.09123462324673      1.15558927976569     -0.12601129041702
  C   5.93789826704072      2.38683363643310     -0.20553293792743
  C   7.08567110741107      2.33592405360845      0.71304843379627
  N   7.99331413712989      2.27185903117953      1.41147026771369
  C   3.72088685870106      1.18141994439492     -0.03788810561159
  N   3.05204041936964      2.43313810417045      0.04377606477357
  C   2.90345862615207      3.25765654438896     -1.03849211992684
  N   2.19846555890259      4.31264499287287     -1.13740006571067
  H   2.32783780633239     -2.84531279076375      0.16046056175080
  H   6.53211868862828     -2.93706606576349     -0.25685592322893
  H   6.72808820268787     -0.07365254841700      0.03340801787969
  H   5.34574221069101      3.26583985918816      0.04268799383374
  H   6.35597404018662      2.53188564271013     -1.21209022469608
  H   2.34227001971688      2.50329677985258      0.75960137826466
  H   3.51196633965913      2.94593311589383     -1.88801288592639
  H   1.68181088624468      4.48947635128204     -0.27462808727915
