17
Coordinates from ORCA-job 1509opt
  C   1.31247931265208     -0.23944785115991     -0.73631051974134
  O   2.40483395474458     -0.01427406229497      0.09869403618154
  C   3.11194762538758      1.16296525636638     -0.22455981782666
  C   4.49063241620398      1.20520540850638      0.00682134462106
  C   5.30386740417423     -0.05417265126387     -0.09150102936475
  C   5.18303291125333      2.41615872805997      0.18790954148525
  C   6.55271925132529      2.61001580783410      0.22019322215312
  H   0.80678845012048     -1.14654533484923     -0.39208176391039
  H   1.62896901035749     -0.36144798815190     -1.78127352541966
  H   0.59820410634295      0.59563609718683     -0.70204999515188
  H   2.51616848376969      2.06676320147685     -0.08350827554299
  H   4.66368744331389     -0.93031578071662     -0.18877187330495
  H   5.94193698039275     -0.18047388356077      0.79049926617178
  H   5.97968063497544     -0.01499762672616     -0.95852150387552
  H   4.55762641308179      3.30473306697382      0.28173562148813
  H   7.25263668932877      1.78825351274080      0.12842752581046
  H   6.96978891257547      3.59694409957827      0.37529774622682
