26
Coordinates from ORCA-job 15091optt
  Br  0.23455562163056     -0.81188033131401     -0.16125625032112
  C   2.67045250973926     -0.05087811114255     -0.22351703113389
  C   3.52339510224789     -1.04434384575371      0.01594818018917
  N   3.24148029458188     -2.38987064907230      0.23111641421402
  C   4.38416015105562     -3.11636163989426      0.47818920365706
  O   4.43306088856412     -4.31406523824591      0.70917418380752
  C   5.49430138320518     -2.15072199645849      0.40307083622726
  C   4.97087575626788     -0.92988683040197      0.12458592689816
  N   5.61425671595550      0.28761106414184     -0.04349898964953
  C   7.07685276071192      0.34622617994552      0.02131892518390
  C   7.57554418634329      0.88135769675654      1.35757358714198
  C   7.30916027864247     -0.07226725636100      2.52845841712435
  C   8.15418909732588     -1.26307187902843      2.47468294760349
  C   8.86388272640769     -2.22666023970195      2.40387383615326
  C   4.98789757178515      1.49206620433853     -0.30647061610470
  O   5.62912075118070      2.51624076589643     -0.44455797647228
  S   3.21990495165418      1.54969186744117     -0.44761491510265
  H   2.29646666569895     -2.74340602050751      0.23786616501540
  H   6.51741628803844     -2.43437770859015      0.58385599492049
  H   7.40976406386164      1.00626628612373     -0.77741975333969
  H   7.46032431703947     -0.65537301256465     -0.16720703631525
  H   7.08856876036830      1.83823845467591      1.54711682626835
  H   8.64913824849481      1.06716564932929      1.28173882000439
  H   6.26025654377965     -0.38147584184129      2.52610003685611
  H   7.48903265822178      0.44240641477044      3.47449529101356
  H   9.47094170719743     -3.09762998254118      2.34737697616060
