24
Coordinates from ORCA-job 15103optt
  Br  1.09640783449933      0.41580207662904     -0.03579915074038
  C   2.97919724843350      0.15811067875656     -0.05759417968277
  C   3.55658140445448     -1.07626711906302      0.05447038113791
  N   2.71096132320210     -2.19858992365826      0.24409763652154
  C   2.77294742503541     -3.45284059678346     -0.27370439205433
  O   1.88824211153423     -4.26754763883823     -0.06527474967989
  C   4.00416424434819     -3.78356659737545     -1.08759766990185
  C   5.24126000217809     -3.64121912405698     -0.26554934521779
  C   6.17815672004043     -4.58688451931082      0.05366511068633
  N   7.18047896496527     -3.96341416949759      0.74616969329475
  C   6.88927706151218     -2.62804382881837      0.88448370497120
  C   5.67479306565924     -2.38749639516632      0.27081492457547
  C   4.97459395778923     -1.13206663279208      0.12387487857063
  C   5.68471734434174      0.09670546369912      0.10036074651048
  C   5.07575731057880      1.35091866253741      0.01234362875641
  O   5.55543771744558      2.46861712107688     -0.02338541736065
  O   3.63650366177409      1.33336949264365     -0.06332161319522
  H   1.84481804063304     -2.01908979642582      0.73307511613498
  H   4.05326769148382     -3.08355358354405     -1.92976691498724
  H   3.87748357286286     -4.79485010807235     -1.46800878828183
  H   6.21816123547999     -5.63953767562097     -0.17261490127403
  H   7.99311658222271     -4.41718599476011      1.11814328636605
  H   7.54354107263262     -1.96214305517446      1.42046208415065
  H   6.76513440689300      0.09777326361572      0.10665593069957
