27
Coordinates from ORCA-job 15102optt
  Br  1.39538590960685      0.09183539249618      0.35381745351182
  C   3.31436355191398     -0.01459571632301      0.08067065473143
  C   3.91422447240071     -1.24310096905037      0.16139396757328
  N   3.19896785570507     -2.43165779670702      0.37761106864097
  C   3.74287801406228     -3.66485077870539      0.51058746282012
  O   3.05569854683190     -4.67006236971670      0.63364487024140
  C   5.25628961165845     -3.72952487435227      0.52419333321804
  C   5.92259337291010     -2.65087592815786     -0.32977825981626
  C   5.85067417239301     -2.97467409911654     -1.82801332837373
  C   6.65141186730892     -4.22049347700627     -2.17371657732180
  N   7.98043996329503     -4.21106253005968     -1.57614091657707
  C   8.17530165233274     -3.43903860316244     -0.59717478727011
  O   7.33185005574673     -2.61387612952227      0.03912401178643
  C   5.33262905157164     -1.32041170411073     -0.00639119815282
  C   5.96631409590150     -0.08726563977151     -0.34554540842027
  C   5.24668261134294      1.07263451083682     -0.38366464110596
  N   3.90144054353009      1.16209879905869     -0.15692702427765
  H   2.19000478715736     -2.38394945112843      0.40619687246635
  H   5.54084459683097     -4.73820168981224      0.22451081499328
  H   5.58274342260144     -3.58116888978220      1.55597747035699
  H   6.25293389872155     -2.11003201655153     -2.36195488500180
  H   4.80183489047083     -3.07839871640092     -2.11556518007563
  H   6.77405626843858     -4.31408677767206     -3.25531311141471
  H   6.13155418522612     -5.12649433407052     -1.84803980245713
  H   9.16511381568691     -3.37342232871850     -0.14985921932435
  H   7.03312009091174     -0.06616141621883     -0.53361491828626
  H   5.74264869544248      2.01483753372565     -0.59302872246453
