23
Coordinates from ORCA-job 15104optt
  Br  0.70700211251733     -1.20010898047921      1.53007623831690
  C   2.32230688084117     -0.10353399381620      1.38385671686450
  C   2.10511685532902      1.10581961050965      0.76962951306140
  N   3.00087265141464      2.16923681573930      0.92494576267170
  C   2.29079932949202      3.17782242149287      1.80309789863330
  O   2.75020108888851      3.43926791930447      2.89279177664595
  C   1.13727101474178      3.76699874578640      1.19497788785786
  C   0.49327898177110      3.41691756489908     -0.00079338050750
  C   -0.46258591806631      4.24417487839459     -0.67575879378145
  N   -0.90508568901454      3.70925163949904     -1.80297432725416
  C   -0.27325213271500      2.49803244954346     -1.91326113727664
  C   0.58592268715995      2.25538913417990     -0.85833026143626
  C   1.37239943831386      1.10218820660624     -0.50322155597093
  N   1.84544315542156      0.19943075494854     -1.30585132473873
  N   2.67902811300851     -0.78885313787390     -0.83110021111067
  C   3.27472088415729     -0.82131012974766      0.48435999178741
  N   4.36193996356608     -1.39566160298131      0.76042200696179
  H   3.07791614652363      2.64398396293351      0.02544877125308
  H   0.75993230138482      4.63483218302530      1.72556088658653
  H   -0.78855556416962      5.22170798030874     -0.34221223969887
  H   -0.49491460107076      1.83114440736521     -2.73409447544570
  H   3.24741329320100     -1.15261729865934     -1.58159105083546
  H   4.79282900730392     -1.79311353097872     -0.07597869258406
