27
Coordinates from ORCA-job 15107optt
  Br  1.71362728542658      1.24979011369856      1.22592678413347
  C   3.49574216620085      0.73847747582979      0.70694855685592
  C   3.90464401630503     -0.52998741528761      0.96534387229159
  N   3.22437357921862     -1.61159112365134      1.53131065392495
  C   4.63678432496326     -5.00074469412328     -1.90938733078215
  O   4.63410037046002     -6.04043937037989     -2.50383576158764
  C   5.17503549673494     -4.71496853834460     -0.52307643617592
  C   5.35042895624232     -3.19871226576842     -0.52539022135224
  C   4.24368551973760     -2.77718466449080     -1.49337148209377
  O   4.11487492610100     -3.87345024545005     -2.42320692652820
  C   4.03078477964157     -2.71472458167146      1.62775467009299
  N   3.70120648372467     -3.75892433087575      2.29147417495535
  C   5.30489435972784     -2.43393058883845      0.81960616219527
  C   5.20906382006944     -0.95487584087391      0.60922017928373
  C   5.99036932354040     -0.00913168015927     -0.11274977532425
  C   5.47677325173263      1.25480015555339     -0.29756524637307
  N   4.25505722520219      1.68976159515312      0.11608871509570
  H   2.37495580947721     -1.52171504004577      2.06476748130647
  H   6.07013130348429     -5.30167155829067     -0.33248347536306
  H   4.39536551183997     -5.01808165958269      0.18194628133277
  H   6.31117755936476     -2.95711650244186     -0.99029409249318
  H   3.28911059058251     -2.64043176602775     -0.97960687817119
  H   4.47949894624754     -1.87777922443628     -2.05621548618463
  H   4.45249975971154     -4.44075688230207      2.25346766593769
  H   6.17028688649813     -2.77120720001356      1.41154346591756
  H   6.98276708104385     -0.24107675879459     -0.48272779270026
  H   6.07776066672114      2.00267259161527     -0.80648775819390
