25
Coordinates from ORCA-job 15111optt
  Br  5.48957162140589      3.11140127493985     -0.57918665165975
  C   4.93130446516527      1.29666150316377     -0.98730714621595
  C   5.80730384851740      0.48202604982003     -1.65571554572596
  N   7.09597701504071      0.87909071210524     -2.03029718683954
  C   7.98759473598521      0.13239419358012     -2.72555469982714
  O   9.10733336497908      0.54574878337720     -2.99229557689567
  C   7.52206663033835     -1.23333550383293     -3.18770777815474
  C   6.44092378398337     -1.84959049945626     -2.29917229533050
  N   7.08612773347000     -2.34362332803225     -1.04395019181672
  C   6.82611586134569     -3.58070197988133     -0.96323512422175
  N   6.14479251718708     -4.12296717831201     -2.05009883200278
  C   5.84218728212417     -3.10868037527198     -2.93383782694840
  N   5.18828738471323     -3.27835205918170     -4.00528172127472
  C   5.37633368461193     -0.83917485603329     -1.99649003341094
  C   4.07550935829884     -1.18876017451980     -1.53379885030718
  C   3.29985106037754     -0.26947538488080     -0.88493994693609
  N   3.69473550160801      1.00164656988814     -0.58889172438741
  H   7.41741503429912      1.79244715802134     -1.74220734905694
  H   8.40512278817680     -1.87155742797820     -3.23828589138069
  H   7.12314155617181     -1.12236937157377     -4.19983460175954
  H   7.09977286919967     -4.22068387676910     -0.13212199191733
  H   5.76566777558643     -5.05021409461555     -2.12449740339394
  H   5.04623479937407     -2.37318712157217     -4.45237742890029
  H   3.67997778950607     -2.18003694912714     -1.72725769042936
  H   2.29265153853416     -0.52670606385739     -0.57465651120664
