24
Coordinates from ORCA-job 15116optt
  Br  1.08990251606317     -0.09183766422395     -0.47835272251222
  C   2.99415713605810     -0.04787250275033     -0.29136226513901
  C   3.61196427364574      1.22162829394608     -0.01350018036567
  N   2.81953249690869      2.29297575083568      0.07329361006419
  C   3.09091166072016      3.55061204697886      0.30990095248942
  O   4.31859264420269      4.11588857532670      0.61741886473609
  C   5.41046918165620      3.62573730159467     -0.12885189135265
  C   5.90425022780592      2.30717430274139      0.43564234567924
  C   5.04262748550620      1.12341029956434      0.10222921919345
  C   5.66038099655014     -0.10503028826487     -0.06095196320115
  C   4.91436698897017     -1.24205218539603     -0.31636065244219
  N   5.53794971524496     -2.49901936359878     -0.46919168078292
  C   4.93777587631000     -3.68603792343099     -0.70933392029829
  O   5.54930209337021     -4.73477763070149     -0.81499721658877
  N   3.58489363564917     -1.19372301899331     -0.42929624771652
  C   2.04909435051037      4.50437406206526      0.37133746384467
  N   1.21611732778496      5.30720162045732      0.43837026430735
  H   6.19088332103093      4.38393287115969     -0.04203383792357
  H   5.13205773782467      3.52457845121621     -1.18435513819239
  H   5.96605421882303      2.44078704743222      1.52258573666875
  H   6.92011771995131      2.11586593472801      0.07940349463847
  H   6.74070152224343     -0.17392291336674      0.02112644030029
  H   6.54222683574641     -2.53417199404282     -0.37830652433429
  H   3.84867003742328     -3.60472107327713     -0.79741415107229
