22
Coordinates from ORCA-job 15123optt
  Br  1.09328593539761      1.28655676030274      0.13701680437056
  C   2.86937373725418      0.65280061386473      0.07876431274035
  C   3.19217522995463     -0.65959339482347      0.03523026288761
  N   2.22200076353905     -1.65290003449515      0.04760807531731
  C   2.25993824619508     -3.04089701324824      0.00957128178206
  O   1.16985738966624     -3.60637922899590      0.04003838743577
  C   3.48808488287028     -3.83540727742972     -0.06313052823084
  C   4.78957782996937     -3.46445213123518     -0.11150214908172
  C   5.32133090972549     -2.14934277942339     -0.09884911128142
  C   4.58887567948869     -0.95337161272889     -0.02962543280967
  C   5.52746897169353      0.10016255899988     -0.04798653551701
  C   5.11090582328283      1.41526988552823      0.00803991549202
  O   3.75470385890811      1.68860644403184      0.07905384203514
  C   6.79642603132295     -0.55942949514197     -0.12840386200243
  N   6.65271445983570     -1.89625123244193     -0.15731095773748
  C   8.05142666725379      0.09805530823075     -0.17487758555293
  C   9.08758192280141      0.71302514494873     -0.21169396272316
  H   1.26413103229247     -1.33515421367283      0.09858393029635
  H   3.24797847820110     -4.88972126201304     -0.08281850594514
  H   5.53329962786418     -4.25307031346196     -0.17069459755009
  H   5.71045513899039      2.30875807546196      0.00824411342684
  H   10.00740738349281      1.24273519774286     -0.24725769735213
