26
Coordinates from ORCA-job 15125optt
  Br  1.04302693526063     -0.04351656895050     -0.41382272847040
  C   2.96426323442271     -0.10736464602361     -0.25174509995447
  C   3.59569287497448     -1.31490681740805     -0.08369533232471
  N   2.89417165508580     -2.52727590304600     -0.12135195159184
  C   3.41789698164170     -3.76152584943229      0.08384585560353
  O   2.72882411954137     -4.77064912115229      0.00904952199979
  C   4.87760511407729     -3.82956670718462      0.47652612680508
  C   5.73496387193838     -2.65323778178004      0.00658446472524
  C   6.17467903557099     -2.82289798559780     -1.41571365361689
  N   7.35742634305734     -2.42045717468147     -1.85508433835264
  N   7.26486962720293     -2.63547129633921     -3.18870829169721
  C   6.05867979698630     -3.14372270489797     -3.48909186885232
  N   5.34544292408338     -3.28451680633364     -2.40353066247162
  C   4.99536266362430     -1.35148707284544      0.15449842595182
  C   5.69164542402997     -0.10646190261109      0.21369372723306
  C   5.02903838480016      1.08858556997441      0.06864330701333
  C   3.64403912766201      1.13415503367350     -0.17770972866833
  H   1.91432046846808     -2.50495567770187     -0.36409333386413
  H   5.25225927277776     -4.78528327497061      0.10685452479505
  H   4.89838051651400     -3.86389320079431      1.56906017521861
  H   6.65055257818594     -2.61021765547584      0.60655892134813
  H   8.01434360527766     -2.36924556645347     -3.80152226114630
  H   5.75917977766425     -3.39416498482995     -4.49475335733511
  H   6.76239893301110     -0.11870567395445      0.38920944398086
  H   5.58150746061959      2.01957416370996      0.14308438846479
  H   3.12042927352180      2.05820960510666     -0.36978627479331
