23
Coordinates from ORCA-job 15124optt
  Br  0.67235988114622     -0.64833493560543     -0.06956454902483
  C   2.55092215099141     -0.33176171462611     -0.03083424038768
  C   3.45018504792410     -1.36989759241647      0.06970461502508
  N   3.35962586315018     -2.73890613433773      0.13850202877295
  C   4.63874517961170     -3.30712435516197      0.17969628296943
  O   4.83077508653609     -4.52796102177943      0.23384521100598
  C   5.57521707523934     -2.20714817464744      0.15234380144504
  C   7.06588126838208     -2.32803164572340      0.14756335408581
  C   7.66056066718979     -2.92456029606515      1.38874434022716
  C   7.11243526121119     -3.85312311832925      2.22714307083881
  N   8.06412995370953     -4.08463108134139      3.19185467743633
  C   9.13299943551315     -3.30114136024048      2.90044784273200
  N   8.92532967169897     -2.59222255121442      1.82294609416545
  C   4.83205478222128     -1.04554695631700      0.08148902166162
  O   5.24801648515723      0.21031905578866      0.01682604125502
  N   4.15305336239113      1.32379021154814     -0.10013907474398
  N   2.96032860887626      0.91655083233048     -0.10797148038368
  H   2.51345067331304     -3.27966047303992      0.11640043008182
  H   7.49918782350814     -1.33576963410738      0.01232874308489
  H   7.38644112778404     -2.93161945661296     -0.70972485785517
  H   6.16926304356606     -4.37014687850157      2.18218659057102
  H   7.98003340604471     -4.71513941174806      3.96834137104063
  H   10.02300414483424     -3.28593330785165      3.50987068599627
