24
Coordinates from ORCA-job 15128optt
  Br  1.69708060430247      0.03136370974158      1.32083316774854
  C   3.48947026657543     -0.23617030007720      0.76545082913659
  C   3.93594008657944     -1.46524337629952      0.28709431289387
  N   3.35885567266882     -2.70278826826467      0.11416745375031
  C   4.27571852873424     -3.62604168550421     -0.41892801890756
  O   3.99011322505875     -4.79741598929907     -0.65503301087725
  C   5.51068226617166     -2.88001988269720     -0.58898067410188
  C   6.70993899231683     -3.39373731852643     -1.11149963924121
  C   7.74230619237743     -3.82570536205073     -1.56294262865300
  C   5.25093833974598     -1.57867639285633     -0.14381057920434
  O   6.11169581704416     -0.51438928507089     -0.09803061019201
  C   5.54574659945596      0.66862761741426      0.36168294406956
  C   6.53283219915288      1.78608088349161      0.28329007379723
  C   6.05757182300090      3.04702265655720      1.00516433089724
  C   6.12987073301430      2.92621150531151      2.45931128789001
  C   6.21662334150765      2.82126775164978      3.65006297120151
  N   4.33688256865797      0.80925350242549      0.76223424429207
  H   2.41145149729538     -2.94541442637249      0.34391870485144
  H   8.64691583845754     -4.21379959350559     -1.96036960370157
  H   6.72116136550448      2.02015573123015     -0.77080069402626
  H   7.48658646424307      1.44744410779723      0.69678328754455
  H   5.02419621058025      3.25225613501499      0.72069862785007
  H   6.66886519312429      3.89754413807584      0.69587860400192
  H   6.27655617442993      2.70717414181470      4.70482461898016
