27
Coordinates from ORCA-job 15129optt
  Br  0.90986760206631      0.17487810868790     -0.98820218338475
  C   2.72485446939327      0.01334593893836     -0.41154067828782
  C   3.46588973867134      1.21705045929427     -0.14708148449717
  N   2.86834308509275      2.39169972338886     -0.39488110457862
  C   3.25475824620046      3.62315848065118     -0.37906847964436
  O   4.46994760765649      4.15331994660348      0.03675485921724
  C   5.59773844495882      3.35373301053295     -0.19977373573624
  C   5.65721948586128      2.15106227980303      0.76369912237398
  C   7.06194562252371      1.81871971041805      1.00732811621907
  C   8.22625540617756      1.59908953105115      1.19644611961752
  C   4.82138726810689      0.97002367624828      0.31328416007554
  C   5.31511618483135     -0.31608973596846      0.42379837719897
  C   4.56094682982175     -1.44814369039079      0.12078821708144
  C   5.06646267184838     -2.86048269213035      0.30790629641349
  C   6.52127171873985     -2.99874364007335      0.26907599743130
  C   7.71560031758568     -3.10727201573939      0.24665255024785
  C   3.22945722839775     -1.24990377594781     -0.29184698791635
  H   2.54285176876924      4.41984854377403     -0.54979503234068
  H   6.46197551865168      3.99634746160701     -0.02866072504092
  H   5.61050485724039      2.99428021802560     -1.23614880635023
  H   5.25075849565060      2.54218358249441      1.70883085377349
  H   9.25274508622001      1.38278534698457      1.36483212619960
  H   6.33419133131648     -0.45150687619165      0.76799575065460
  H   4.64671611790360     -3.50573531521144     -0.47081340454507
  H   4.72091117243076     -3.28373168080466      1.26191291654082
  H   8.77450411144913     -3.18854924025297      0.21840453185283
  H   2.59577961243437     -2.09836735579229     -0.52289737257552
