26
Coordinates from ORCA-job 15133optt
  Br  1.15358947647532      1.17753496510709      2.55016357265230
  C   1.96688638064200      1.28595967044838      0.77664139684306
  C   3.23165952398492      1.90765300847358      0.68261044496556
  N   3.50928050439388      3.09569606994391      1.37979771353427
  C   2.67750887047320      4.03451590498223      1.50209301209746
  O   1.43578860676060      4.21690650901700      0.95604028902876
  C   1.20266479457998      3.95015301023258     -0.42870265324939
  C   -0.29762864474033      3.80284147122747     -0.61800542775766
  C   -0.94658398078644      2.68585655578861      0.22081532760749
  C   -0.97701949502735      1.30731587252707     -0.39225927210125
  C   -0.02583005063783      0.37791271600484     -0.53989678098842
  C   1.41578531239932      0.42696079294322     -0.22804724588083
  C   2.24284164803513     -0.21927171014000     -1.08806038778342
  S   3.97130960546044     -0.15186649326019     -1.01949629728464
  C   4.32376511774733      1.37968095255616     -0.05658760026492
  O   5.45999648071269      1.80683487630963     -0.16692348090875
  H   2.91149890779897      4.86382714462740      2.16641991264511
  H   1.74027806395903      3.06653496958855     -0.76136006655092
  H   1.56451962295973      4.80975794872396     -1.00413173656926
  H   -0.49786866783066      3.65219883383404     -1.68253798571521
  H   -0.75747899808742      4.75357576909575     -0.33279439414684
  H   -0.46202726671248      2.67603584590923      1.19505525548249
  H   -1.98535078656346      2.97367400050293      0.39920377774493
  H   -1.94709014590743      1.02441954254037     -0.79441272861553
  H   -0.32791690546849     -0.52832475474560     -1.05998836642198
  H   1.84042202537931     -0.76238347223826     -1.93663627836241
