25
Coordinates from ORCA-job 15135optt
  Br  1.02682322309401      0.15335129759880      0.46972209266309
  C   2.91979469099283      0.05127712282573      0.28429498956153
  C   3.59564188033559     -1.14802697526797      0.17470275210302
  N   2.94707613663543     -2.38710195729834     -0.09091756266986
  C   1.93253543110727     -2.49056665720851     -1.01270946119692
  O   1.39081711183088     -3.53750466337663     -1.30085824643554
  C   3.53804918784170     -3.57891138532080      0.36239467483804
  C   4.87691726184611     -3.60501855732521      0.60442084164268
  C   5.66150780957246     -2.44951622906783      0.48134824557161
  C   7.15662613684224     -2.53686560311497      0.65915730623139
  C   7.62713113512931     -2.10651095333660      1.98122351028643
  C   7.99441411636972     -1.75330440988694      3.06674641786388
  C   5.01592228737098     -1.19493825658795      0.32054952681994
  C   5.68915359017320      0.04421678438017      0.42172574574504
  C   5.03012223334268      1.23843350591846      0.41688059265944
  C   3.59212325787447      1.33743094458540      0.37747052341614
  O   2.98898532286642      2.42231369752822      0.43868203280243
  H   1.68237367067140     -1.53780931012114     -1.48547412831335
  H   2.89162927580959     -4.44024894700169      0.35799452854552
  H   5.33540630353558     -4.54636102851151      0.88331166222819
  H   7.66943998918898     -1.93660845996601     -0.09919580819855
  H   7.47362733955264     -3.57073179205063      0.50433769029650
  H   8.30147122687010     -1.43131328078790      4.03173274908249
  H   6.76650216024344      0.03925240214799      0.54103589831778
  H   5.56690922090287      2.17506271124590      0.50342342613906
