23
Coordinates from ORCA-job 15131optt
  Br  4.48228994412797      2.11350285337117      3.47082412316271
  C   4.64273661170816      0.96461125363864      2.00211672836930
  C   3.70733333843554      0.88916440323531      1.00394544877509
  N   2.53396482473085      1.54904507080677      1.09655468398756
  C   1.65875545474051      2.00655742758734      0.23309503751966
  O   1.92225969729621      2.24849378368701     -1.13163767544366
  C   1.10372731305173      1.61325963715269     -2.02870424187066
  C   1.12266349072357      0.28823108964751     -2.20929813354465
  C   2.02692675327561     -0.47217220752540     -1.33405491881670
  C   3.28457830947792     -0.05697568306450     -1.24181182105257
  C   4.10667031913585     -0.10065526787777     -0.02433056334385
  N   5.09826866498977     -0.91594599874639      0.08838369632450
  C   5.90533315076671     -0.86618585660429      1.21303979637998
  N   6.82661586136358     -1.69092771310649      1.49120298711382
  O   5.73841183904546      0.17547376817621      2.08226410461508
  C   0.36570014625821      2.42214345203442      0.65969906859409
  O   -0.51591827049154      2.88581227569233     -0.08444605267127
  H   0.44135633533164      2.27755632282436     -2.56937311754361
  H   0.41869795996942     -0.16602596739968     -2.89407789644800
  H   1.61344440268116     -1.15629137698490     -0.59786580962087
  H   3.63954206865878      0.66305730836770     -1.97320914103707
  H   6.85713778867068     -2.37244154192736      0.73876566473438
  H   0.19450399605216      2.27971296701530      1.73791803181675
