31
Coordinates from ORCA-job 15149optt
  Br  2.19623349684447      0.34981785361182     -3.62200930043813
  C   2.39219025664173      0.61336227322947     -1.73248393728695
  C   3.05868462277035      1.75876720776772     -1.24961861622299
  N   2.90851883210264      3.07534494824248     -1.82964642088603
  C   1.59264431920052      3.55084544456584     -1.73743558684232
  O   0.66549946324663      3.01698964713196     -2.29914013742962
  C   1.35236372732580      4.70004764998048     -0.77747084772000
  C   1.06994853653626      4.15995964498017      0.64555893517865
  C   -0.22320171199270      3.33355177275190      0.79925205011899
  C   -0.08891078090232      1.81893681313474      0.63959400356562
  N   0.51807802425293      1.18290271533992      1.81695219113082
  C   1.05175114511350     -0.17683959646008      1.55640000069249
  C   2.12631355545254     -0.18283400051822      0.50035397536008
  N   3.24687806044411      0.62109823590066      0.81505118745571
  C   3.53283602803685      1.77565460147185      0.08469839290120
  O   4.11773368767138      2.73063823748376      0.63848555566600
  C   1.84372287183321     -0.31020362405848     -0.85663117033346
  H   3.54894415599992      3.67608291657772     -1.32050232650983
  H   0.49110415601622      5.26974508503096     -1.13122915598409
  H   2.22426724261325      5.35660299684288     -0.73568599781436
  H   1.00345769874891      5.03446704207402      1.29785092262984
  H   1.94659299982732      3.60095349518922      0.98497834173312
  H   -0.95116015622309      3.68469272715052      0.06298196568943
  H   -0.65070155511286      3.52655184692931      1.78819955599505
  H   -1.08933475041260      1.39010639604310      0.51819598640737
  H   0.45561126118694      1.59967096720197     -0.27943622507205
  H   1.29934438107944      1.75841432251814      2.11995717465103
  H   1.41930231852030     -0.55146785297215      2.51827882822084
  H   0.22217389180898     -0.81713833693237      1.24666370873288
  H   3.51630006819911      0.70239270167082      1.78491424408899
  H   1.09781415317023     -1.01811413188017     -1.20107729767828
