24
Coordinates from ORCA-job 15145optt
  Br  2.68801428710826     -1.54152447236921      1.02854383128541
  C   2.94062084228354     -0.04095886519194     -0.11275701255778
  C   2.38535353651858      1.21933971151698      0.27239752917205
  N   1.84443054861526      1.41381096864881      1.56312133037443
  C   0.39959528917377      1.34773209513350      1.62587908458635
  O   -0.21083114056535      0.31924777586438      1.55145283429988
  C   -0.06595850784317      2.73186800798270      1.51422021823694
  C   -0.71272679545907      3.07061465786981      0.37611406625957
  C   -0.26045140080242      4.24263164055033     -0.31505800226903
  C   1.08828617281749      4.46598681920299     -0.57893813585475
  C   1.29840830649906      5.84845277271940     -1.12068666747565
  O   2.34972173258842      6.35734835421341     -1.41729388557002
  C   2.26379436991730      3.67681938651679     -0.61375131723406
  C   2.59693278802110      2.28071156931185     -0.60854867099125
  N   3.43733726650177      1.94576509287294     -1.66927122303632
  N   3.94788308699981      0.71181741054666     -2.00665749491678
  N   3.65167555381665     -0.26456628362334     -1.17690249285955
  H   2.14231665979155      2.33169713936755      1.87256280886343
  H   0.60174783843469      3.48831023126340      1.91085392662638
  H   -1.44569422592430      2.39364407211673     -0.05941443719632
  H   -0.97218876798707      4.93823439912069     -0.74788458357326
  H   0.36100380719315      6.42892235448054     -1.22802788710704
  H   3.05777907507457      4.23841152809153     -1.09833628572160
  H   3.52494967722641      2.61468363379345     -2.41561753334104
