23
Coordinates from ORCA-job 15146optt
  Br  1.55212124330673     -2.72739639248143      1.09233795965003
  C   3.26382043464201     -1.84632564439976      0.82946738883042
  C   3.62030963202132     -1.39535740295837     -0.46219125504400
  N   4.53936637735182     -0.29030822971884     -0.38581600585512
  C   5.39287658658216     -0.10364236174724      0.66942984085230
  O   6.07436544971200      0.88751965856876      0.84127348817491
  C   5.32178534343416     -1.35729307572588      1.49930540624771
  C   6.31857758499183     -2.24885376297346      1.44487309158659
  C   5.94088039322807     -3.68446781193697      1.41758694537824
  C   5.34972498901322     -4.01788779964754      0.15689088428368
  C   4.17263538191553     -4.65401225822455      0.03662807390820
  O   3.40135027651025     -4.67279606639347     -1.10142006583633
  C   2.90095453984490     -3.53727659592609     -1.70967065662310
  O   1.94372878893556     -3.66338382404366     -2.40345741286821
  C   3.69280309086997     -2.23396231697420     -1.61021096141970
  N   4.42711087939830     -2.07607665253016     -2.66202269093255
  N   4.00865155068421     -1.72883794165478      1.86509145283540
  H   4.37098236824243      0.52591078533507     -0.95612327555184
  H   7.29059048981218     -1.91891620041440      1.09075181173919
  H   5.61187794711941     -4.19762026960306      2.31386442825676
  H   5.72844837887289     -3.50269214850338     -0.72112976929375
  H   3.68272657324736     -5.14480135956987      0.86945067719829
  H   4.98031170026353     -1.22452232847666     -2.56290935551712
