26
Coordinates from ORCA-job 15158optt
  Br  0.96829133873310      0.14803724588013     -2.26769642289477
  C   2.19762293133972      0.52845596849409     -0.85970388815763
  C   3.15795979963707      1.46167989766593     -0.95364479109298
  N   3.07682850945261      2.50253571028693     -1.90416348681274
  C   2.51321052111555      3.71021289795567     -1.57092629333940
  O   2.54994350312378      4.65469536746828     -2.33713682986403
  C   1.84112171813642      3.80917142553772     -0.20416062131185
  C   0.37826631468365      3.33054542407778     -0.18432325290584
  C   -0.12222437098630      2.92309645282325      1.22183023597876
  C   0.28319247437609      1.49032798275637      1.52573869753283
  O   -0.42918216866533      0.55179947435825      1.23380419455003
  O   1.49305949360345      1.38850951358824      2.04468838803457
  C   2.51705119059148      0.38000760591325      1.45163417286240
  N   2.02125369821703     -0.20844981149523      0.28173300530762
  C   3.79177269415582      0.97934764951080      1.36175025562493
  C   4.19243632826454      1.55930693635043      0.13560856806758
  O   5.21210961572883      2.23367578287035     -0.08577742363268
  H   3.75736974803124      2.56182528896703     -2.64796084749772
  H   1.87767042839548      4.86513951300603      0.06337896565236
  H   2.42001067281655      3.25490418686769      0.53399920557329
  H   -0.25678313594012      4.13285650626629     -0.56438601369056
  H   0.23549402999896      2.48614128391294     -0.86043986815915
  H   -1.21070592387604      2.96529176713226      1.24768537861037
  H   0.28578097303632      3.59881775541381      1.97511311546022
  H   1.14419436981991     -0.70298899197393      0.35820479642426
  H   4.30925524621010      1.29305716636556      2.25915075968014
