27
Coordinates from ORCA-job 15157optt
  Br  1.07880899549539     -0.51712622978541     -0.32494592795028
  C   2.97714287664320     -0.26241576196205     -0.10673411580693
  C   3.48399725037291      1.07553742068654     -0.19486621447367
  N   2.65629860904939      2.11449135190247     -0.30181563536486
  C   2.97088701135985      3.35481022612009     -0.00098070213712
  O   3.96411737503828      3.65690603630236      0.94256677325305
  C   5.16967917280041      4.19074532634872      0.48497099910415
  C   5.73643656951148      5.05649807543292      1.59822589026169
  C   7.15728917879231      5.51764406516809      1.32791037085012
  C   7.29786274660935      6.53918505758803      0.23834129163662
  O   6.39104636213730      7.10357147847568     -0.31147492826993
  O   6.11588248537515      3.19677257608774      0.21460259617440
  C   5.69849591149354      2.25596454899859     -0.77183664675486
  C   4.92571286782842      1.06828537732943     -0.25978891497241
  N   5.64564558561688     -0.02142634247534     -0.02838305526187
  C   5.01416454522962     -1.16080515279256      0.21543746992498
  N   3.67764903771116     -1.32164152612650      0.12018358269555
  H   2.20330899154809      4.11699347492611     -0.06182294124954
  H   4.97922111863416      4.77076491183036     -0.42930045786490
  H   5.71103362018663      4.45298741980238      2.50709289033963
  H   5.07182544790232      5.90974275891674      1.73625119664902
  H   7.79344480294855      4.66671346023415      1.06864991764035
  H   7.61029340347659      5.96893659081541      2.21964890256222
  H   8.34505806924938      6.78011714166639     -0.04113846111042
  H   6.61560821035021      1.86645955728462     -1.21111582736698
  H   5.11747357083457      2.77893514982943     -1.54044752635930
  H   5.60261618380467     -2.04064699260455      0.43876947385129
