24
Coordinates from ORCA-job 15151optt
  Br  2.34407419135400      2.30258243719301     -2.13588794829000
  C   3.97792382726014      2.61976305262839     -1.16082322415564
  C   3.95205147831699      2.79722578346901      0.16148867217685
  N   2.78063770069129      2.91893543977168      0.92235457810975
  C   1.96194483037203      4.00747410232396      1.02035321861123
  O   1.07380428267015      4.04572482808366      1.84794075977076
  C   2.08911079187920      5.15937296178282      0.01316958864971
  C   3.43241389250760      5.57743737952627     -0.37042775331249
  C   4.57975553192100      5.81419540445233     -0.63204155261192
  C   6.01595045741466      5.75130041133322     -0.93385823985165
  N   6.32493676639766      4.64267395416741     -1.85308833995112
  C   6.21783905225103      3.33448999958492     -1.38893736729718
  O   5.01197411705468      2.69801774588307     -1.98438569206491
  C   6.67861180732969      2.82829507770012     -0.12600926506546
  S   5.50846416130704      2.95976750874814      1.08106588174006
  O   5.53414393545252      1.83911506070765      2.00486023041151
  O   5.40471197265495      4.26605759618579      1.70112764964353
  H   2.68397960474730      2.28344235863077      1.70502922935558
  H   1.53983057762854      5.98038900558281      0.47170438703988
  H   1.52973662200015      4.85132034956664     -0.87591671657390
  H   6.55485915988193      5.56603421301815     -0.00263375451094
  H   6.38096099686661      6.67930768352055     -1.37443250301551
  H   5.81023619757897      4.74739362160219     -2.71859622434565
  H   7.01704804446176      1.79568402453732     -0.14905561446247
