21
Coordinates from ORCA-job 15163optt
  Br  1.27988147073883     -0.35073004545387     -0.06717771249320
  C   3.11865321201327     -0.01281983394986     -0.22901464564742
  C   3.73188373306562      1.15868785508883     -0.00352537917984
  N   5.14255343666543      1.20009226820952     -0.16410670367592
  C   5.84559045425516      2.34791701599777     -0.55985931375818
  O   7.03148082181443      2.23719287529995     -0.89023882749269
  C   5.11028537140565      3.56189551355993     -0.48408342369660
  C   3.80000865181606      3.60571389685671      0.00471460772537
  C   3.15698969666569      4.86694707630685      0.17578620767685
  N   2.67127803801144      5.90371744015658      0.30001221577892
  C   3.03621198232428      2.43808770908991      0.32894238274915
  O   1.89231081084402      2.44953232360950      0.78910917766184
  C   5.83897387876249     -0.02912845046622     -0.05481501525914
  C   7.20999711161021     -0.06039791802189      0.48191486484850
  O   7.93973620467445     -1.02041365068035      0.38494384271967
  C   5.18747792130607     -1.17093505402618     -0.28000510383735
  N   3.84528580484879     -1.16255858711795     -0.62847544261891
  H   5.63188620149826      4.46351934732774     -0.76678096283454
  H   7.51840274235010      0.84245839939170      1.02732413536901
  H   5.68132101531398     -2.12380690747053     -0.15479184450632
  H   3.34479144001571     -2.02797127370818     -0.50587305952922
