22
Coordinates from ORCA-job 15166optt
  Br  1.21762495720806     -0.11776982179837      1.40972215750605
  C   2.81199116901976     -0.07515990417344      0.37408608343103
  C   3.38156290939634      1.13197116965029      0.04429042810268
  N   2.99407246393562      2.46280644305837      0.30760496354057
  C   1.75699270183854      2.99729924308086      0.04417224581452
  O   1.39917102414308      4.09129210289264      0.43441053012769
  C   0.89265872890640      2.20861005208538     -0.83205983354903
  C   0.16775189749434      1.66210893646867     -1.61285894868547
  C   4.18640144634971      3.31244839435176      0.29372572366238
  N   4.22946033845305      4.56244765219591      0.51642434139423
  C   5.27294760404669      2.43880988661326     -0.08824485017568
  C   4.78435254547547      1.18115949422582     -0.24455303964732
  O   5.48151183896601      0.07684115109979     -0.52004369961201
  C   4.77660811932903     -1.12719502495811     -0.54242688290348
  C   3.51713352510936     -1.25748634024700      0.05844310744836
  C   2.97010009883689     -2.57945355858385      0.24454799523637
  O   3.55276065878412     -3.62215426371739     -0.02957201229077
  H   -0.47341088724471      1.14697988750608     -2.28665252359476
  H   3.31446341180559      4.91367095735540      0.78181065141873
  H   6.29277602963754      2.76966904561115     -0.17433440742020
  H   5.39335144173399     -1.96868098404520     -0.80250536036043
  H   1.94171797677509     -2.61321451867203      0.63901333055653
