25
Coordinates from ORCA-job 15165opt
  Br  0.77682567607889     -0.46916299820627      1.17827452819435
  C   2.30210933343321     -0.49977447250455      0.06942913690771
  C   3.02778600288606      0.63565741029941     -0.14696983701432
  N   4.18255457068479      0.49631410282526     -0.92324924595781
  C   4.82770757989050     -0.70367161476683     -0.97723867882523
  O   6.15350383791393     -0.71939922047121     -1.27266500226174
  C   7.01896861805591      0.25424856751830     -0.78976720334762
  C   6.83266736684075      1.14625551554345      0.20353693214227
  C   5.66598058273953      1.33521184168711      1.02193366751779
  N   5.13980736651070      2.57287109272700      1.07656896568806
  C   3.84595051857989      2.79040997849764      0.90722706112975
  C   2.80937003539506      1.97485837187686      0.39466899439003
  C   1.51897574628889      2.55537431028140      0.32211951627121
  C   0.44081804120038      3.09253254679363      0.23728357229617
  C   4.15630548120183     -1.84817555590386     -0.75591851419141
  C   2.74652186927764     -1.81819863616040     -0.38715745002956
  N   1.98113586249649     -2.85356217888714     -0.32182502669724
  H   4.72373788626859      1.33428910686750     -1.06842938757794
  H   7.93099860775161      0.22552346277129     -1.36765905961495
  H   7.59453728901025      1.92018271121862      0.25831965809414
  H   5.07906444642755      0.47255853966445      1.33477132804759
  H   3.52196884580710      3.79970794566240      1.15314419842331
  H   -0.52224341553952      3.53615558541022      0.18573766123810
  H   4.68519421361062     -2.78965512337879     -0.79844137835907
  H   2.49775363718890     -3.67255128936551     -0.63769443646361
