22
Coordinates from ORCA-job 15164optt
  Br  1.09495774688748      0.04293100634915     -0.43494936864741
  C   2.94864456337988      0.13019985691559     -0.20600820161986
  C   3.63311528633324      1.29281057694405      0.05295355032435
  N   5.04001687624492      1.18251068999945      0.18192169109147
  C   5.46094237120740      2.43607007938460      0.42202554006317
  O   6.76947406170010      2.66511463761724      0.59565671297709
  C   7.07834927950524      4.02896544150155      0.83296488738159
  C   8.51805189590510      4.15031466090762      1.05194410711182
  C   9.69190270205937      4.29326777992129      1.23744583971557
  N   4.53634419824120      3.35188995359911      0.46703588603608
  C   3.30580078952453      2.68310558007572      0.23587150645654
  O   2.20719556663811      3.22825252794361      0.20585395207871
  C   5.67910334735928     -0.08702686371329      0.08908288276242
  N   4.96149941870826     -1.18100000717379     -0.17727256006354
  N   3.63225292219996     -1.03120544063722     -0.32505962171226
  C   7.05925437016724     -0.20460678434131      0.27928087469043
  C   8.25177914450443     -0.33650492969046      0.44543586964509
  H   6.52496655283366      4.39074602618982      1.70172209232602
  H   6.76875558213808      4.63643602250672     -0.02036866095013
  H   10.73681194097118      4.40229770360156      1.39885923964284
  H   3.13398830228666     -1.88429867069810     -0.50714264043940
  H   9.29879308120455     -0.43426984720295      0.59074642112940
