21
Coordinates from ORCA-job 15171optt
  Br  1.34196644057166     -0.39834952329414     -0.47234263898759
  C   3.19042971248787     -0.08348353551530     -0.58770156300077
  C   4.00342690988153     -0.32959431967542      0.48068548879518
  N   5.35540431653030      0.02339447095992      0.26763515888998
  C   5.82889052089477     -0.09495849816565     -1.00439203453429
  O   7.13025071048715     -0.45123230440466     -1.18250423896885
  C   7.84894517930346     -1.14795591927687     -0.21941446318854
  C   7.34532023958214     -2.02391175970858      0.71471961274482
  C   5.99094884472447     -2.37999215659396      0.84269234276093
  N   5.42701363284774     -2.43067590456446      2.05967630967983
  C   4.31235090498919     -1.76619869478539      2.33384462946103
  N   3.62620197766567     -0.84367657369692      1.67151847272147
  C   9.22968537693036     -0.82183840331164     -0.25388705824720
  N   10.35457615689869     -0.56888945867479     -0.25801110410756
  N   5.11812769151393      0.06562713735398     -2.04591851495038
  C   3.74173310006808      0.32440879717588     -1.88187407802891
  O   3.07808101399635      0.74649016295023     -2.80416135750495
  H   5.98481768937892     -0.11814363764192      1.04083997050058
  H   8.00661972321079     -2.26442373860070      1.54073782761771
  H   5.36250093839040     -2.41349107783254     -0.04823174338484
  H   3.89270891964632     -1.99510506269704      3.31108898173237
