22
Coordinates from ORCA-job 15172optt
  Br  1.28008252801988     -0.35637743563571      0.68760129052746
  C   3.03952477737704     -0.15210207447451      0.03562844031946
  C   3.67229898566500      1.09529172860992     -0.04016434005215
  N   3.23755333420232      2.41751245222083     -0.05382795261810
  C   2.00100467838390      2.92933660381234     -0.42768453963157
  O   1.12051275499400      2.28517484509691     -0.98994747274502
  C   4.38183318636159      3.23579280249469      0.11979970210404
  C   4.31277944604458      4.72067456985036      0.08415809426058
  C   3.65314777870736      5.34265103359750      1.23992276016609
  N   3.15289200551891      5.86399767396628      2.12944453462811
  C   5.48069918309457      2.46644343402384      0.12664858508706
  N   5.07649843981440      1.15854808330880      0.00334884990034
  C   5.90681441065435      0.07150604119896     -0.19908021382064
  O   7.12139421054794      0.17570772596667     -0.22276755500029
  N   5.20902205078470     -1.07746205769640     -0.37533845516401
  C   3.81353552077355     -1.32116952464383     -0.08534976680164
  O   3.48929346197459     -2.50133959658289      0.03275072847989
  H   1.87809515805695      3.96920911562730     -0.10266931143699
  H   3.77636405450709      5.04946209875179     -0.81391286195161
  H   5.32935478673069      5.11116048099610      0.03170530033264
  H   6.52450509758348      2.72229922496090      0.16976558037110
  H   5.75779415020300     -1.91931722544991     -0.46403139695475
