25
Coordinates from ORCA-job 15182optt
  Br  1.18547339326535     -0.23764673005762     -0.36141939700719
  C   3.08342146065235     -0.06905121822599     -0.24256057828335
  C   3.74994024877727      1.11779304421655     -0.47394271468131
  N   2.94989526687340      2.20496064013832     -0.88403023348245
  C   3.02356790720766      3.53906101002862     -0.60272272470481
  O   2.13563139728147      4.28985663876857     -0.96922158389972
  C   4.25852485993415      4.01646514029775      0.09468279549350
  C   5.47973031276996      3.73012280452287     -0.77739093644024
  C   6.01967240693869      2.31223357202652     -0.68234894511412
  O   7.26178297124045      2.19443907565465     -0.79125027014685
  C   5.19341855689755      1.16867980255408     -0.39956772132100
  C   5.89246311243676     -0.04567828711212     -0.09205197037867
  C   5.19036277100395     -1.23558225764727      0.12803848191758
  C   3.79462544182464     -1.24609677266943      0.05484456592165
  N   3.38444800498269     -2.51528254885284      0.31171072463251
  N   4.41591153593946     -3.34232696546560      0.54843049406052
  C   5.50097626438302     -2.59425004302033      0.44062176547698
  H   2.06321385277286      1.95941427437974     -1.30238358189915
  H   4.37017786604390      3.50677799916818      1.05533334041279
  H   4.12372132548454      5.08256789062293      0.26662346558406
  H   6.31027784194746      4.36754115091552     -0.47285477602260
  H   5.25373966019901      3.98914314014194     -1.81859828995697
  H   6.97002896516844      0.00203043609473     -0.07174747689902
  H   2.44215224030582     -2.86006383783393      0.33569052131732
  H   6.47184233566908     -3.04110795864583      0.58811504542052
