24
Coordinates from ORCA-job 15180optt
  Br  1.09387196177291      0.31254319005277      0.25958739752008
  C   2.98257815634590      0.10199032060788      0.05937224246561
  C   3.51032007411047     -1.22306197870242     -0.07182156303356
  N   2.75208750868184     -2.26791920024136     -0.66630253883351
  C   2.46652833605311     -3.45563420732042     -0.10711476021970
  O   1.83527810970941     -4.33905360922947     -0.65411918384235
  C   3.02520268158118     -3.70598278030986      1.31432442866172
  C   4.52342918373586     -3.37669049920993      1.53769000808638
  C   5.33569277378395     -3.52863953285864      0.26727855518533
  N   5.80171932449933     -4.62149824403850     -0.16927036159172
  O   5.60628459250197     -2.41681945492322     -0.44268640652976
  C   4.93732804815338     -1.22035074422364     -0.19051912004162
  C   5.67478583092238     -0.07985008268851     -0.09384273459239
  N   5.14138341282902      1.16664561576370      0.05658578208208
  C   3.79207566895019      1.20187235204449      0.13644916036805
  C   2.21646347248221     -3.03976172516660      2.33562570494627
  N   1.61370285069834     -2.56721664578189      3.18924846677731
  H   2.37723790676348     -2.16132188037235     -1.60641388987773
  H   2.87128258643189     -4.77862199530712      1.44313915283409
  H   4.91767640083794     -4.08275974210499      2.27004427759769
  H   4.63076359452769     -2.37105376630698      1.93551196851379
  H   5.55524242352771     -5.37588932653651      0.46537037755471
  H   6.75592191006286     -0.15671253413323     -0.14559403161202
  H   3.34114319103689      2.17778647098682      0.28445706758125
