24
Coordinates from ORCA-job 15188optt
  Br  1.13049089086918      0.03349401852424      0.73131538440463
  C   2.84288696400449      0.04893390536019     -0.19874879514777
  C   3.51042062245557      1.26673142450279     -0.38412678419915
  N   2.74251555608965      2.42977917104672     -0.57892745847065
  C   3.02506609234144      3.49855297007024      0.00948211044580
  O   3.98427156174608      3.67061487676563      0.97173076312257
  C   5.19505749766516      4.28270681948433      0.53833112042006
  C   6.23832710362947      3.25753398505929      0.14231339664212
  C   5.79386734248449      2.29253133510419     -0.96005156973564
  O   5.14751198377363      3.01340135558563     -2.04197617932754
  C   5.90673452609422      3.74631593670864     -2.83186359776236
  O   7.09178559950597      3.91795749752045     -2.74334059835813
  C   4.89082685306772      1.18142765511069     -0.47893861264314
  N   5.59813684850848      0.06807948392199     -0.17204539524056
  C   4.96354602613808     -1.05240207537094      0.17005369758857
  O   5.43161960855212     -2.09035447677602      0.57220649968569
  O   3.53856118995098     -1.08249779531601     -0.01029591917730
  H   2.44576060810173      4.39871825735183     -0.19748750279437
  H   5.55868570864556      4.87632492768712      1.37787567485974
  H   4.98512199858989      4.96719553747028     -0.29184528423213
  H   6.49922349982672      2.64162063041018      1.00491793800245
  H   7.13385954810332      3.79045014489355     -0.18382227856926
  H   6.68077112030794      1.80860798219709     -1.36762079241251
  H   5.28495124954796      4.19927643268784     -3.61613581710111
