23
Coordinates from ORCA-job 15198optt
  Br  0.98932826399142     -0.23090219709639     -1.35303036359841
  C   2.94527288253851     -0.16358777934350      0.03894149264459
  C   3.63755095528386     -1.32964620976988      0.03134448241528
  N   3.23475742126118     -2.66211262786721      0.02246311101255
  C   4.32364744104831     -3.51991578850345     -0.00712750926540
  O   4.26639014030865     -4.73530702336267     -0.05451843716749
  C   5.50538855824055     -2.63825073336072      0.02803140514965
  C   6.85595057984685     -3.03013427531033      0.01563238272085
  N   7.98189230237758     -3.28082454638884      0.00744997054580
  C   5.04419160110373     -1.33557945635768      0.02980699423431
  N   5.70028723146199     -0.14265285226596      0.00160996112824
  C   5.05486006832126      1.08482810153919     -0.03521348093360
  N   5.63745488549120      2.22331189434308     -0.07697860090198
  N   3.66719518352348      1.00437462614848      0.00038723203852
  C   2.94663594082743      2.26996384667433      0.11393641232059
  C   2.94113009522830      2.78679110751146      1.48469553808145
  C   2.92147557642979      3.20319738481208      2.60717459166354
  H   2.28910774285658     -2.95978075986452     -0.15086658578220
  H   6.70823888084659     -0.13630380725429     -0.01772236799379
  H   6.64682731552459      2.12062119398118     -0.08473226243923
  H   1.92820656198821      2.07601088683324     -0.21933605885481
  H   3.41719305909077      2.99759234439137     -0.54547441619813
  H   2.91001731240903      3.56430667051104      3.60652650917966
