25
Coordinates from ORCA-job 15195optt
  Br  1.01930645533457     -0.13232281412966      0.20234252664751
  C   2.91792332814789     -0.01889893261188     -0.01650327318438
  C   3.54928435864437      1.26119508994244     -0.18923361057831
  N   2.71899015126997      2.33870370684859     -0.57781088928986
  C   2.74795103089368      3.62940492511308     -0.18130675717812
  O   1.90897556127043      4.44937015946316     -0.52946128814046
  C   3.98131687751666      4.00037218185996      0.59302994914732
  C   5.19519641261738      3.78088131595042     -0.31168665712656
  N   5.73061189288658      2.43104395257546     -0.23333174008765
  C   7.09648250786342      2.30854006415893     -0.26168054714400
  N   7.77485453197633      1.24483019651896     -0.12218755569612
  C   7.09863223925066      0.02346403413032      0.10221492071960
  N   7.77517224505843     -1.05645906200550      0.31550128022094
  C   5.64751780034435      0.04523745507637      0.05870597073746
  N   4.99985422091106     -1.15510769983721      0.18501615230392
  C   3.67652802941786     -1.14629655902079      0.17487724606692
  C   4.94887042416684      1.26428857512012     -0.12744907701007
  H   1.87933515031514      2.08418718469364     -1.08233121655313
  H   4.07901622971032      3.38698767372153      1.49169213864755
  H   3.89549697677652      5.04903965040882      0.86800069690650
  H   6.00032774965655      4.45095660478120     -0.01147680976513
  H   4.92373053869870      4.04034849183151     -1.34087591674215
  H   7.61606052070301      3.25093878750750     -0.42159559406899
  H   8.76022930808921     -0.79919873808390      0.26899987581275
  H   3.17833545847976     -2.09950624401321      0.33255017535445
