26
Coordinates from ORCA-job 15194optt
  Br  1.36222476092973      0.46000493597942      0.25035777142051
  C   3.11966044719375      0.07575482088099     -0.35813289609380
  C   3.65597078245692     -1.14731413243232     -0.28974198698876
  N   2.98780944820866     -2.30234266823976      0.14323834047583
  C   3.57755309862300     -3.48095087916932      0.49068238098619
  O   2.92030433889189     -4.44245252101054      0.84956546189720
  C   5.08182137422537     -3.48698211346326      0.36666599113633
  C   5.52485504852266     -2.60333650423750     -0.79713559985495
  N   4.98708008558712     -1.27336848608785     -0.64950050825507
  C   5.89594592481832     -0.17344696229701     -0.33093801657914
  O   7.08692761608872     -0.45792333118988     -0.07901263567797
  C   5.28968903843931      1.11133445805271     -0.37499244978063
  N   3.91843474022206      1.12356373774773     -0.80856947372329
  N   5.78174887094936      2.30343822705468     -0.12983302448214
  C   7.18833524190482      2.38409701989306      0.18599510641070
  C   7.59554929835198      3.78176855249090      0.38830303083292
  C   7.95552626130040      4.91462343921014      0.55508646263375
  H   1.98353161939140     -2.25737912687692      0.23837328949938
  H   5.40018359831954     -4.52289343805198      0.25625257154894
  H   5.50561396331597     -3.08934204666260      1.29308426940374
  H   5.18850267282508     -3.04641052848844     -1.74177198184277
  H   6.60709312686122     -2.49967809153118     -0.81716628667121
  H   3.53132539181924      2.05168264393477     -0.73017549852075
  H   7.81909859650342      1.95681716347141     -0.60350847493736
  H   7.44999355570939      1.81709522538304      1.08845278404399
  H   8.25622109854051      5.92264060563975      0.70242137311835
