23
Coordinates from ORCA-job 15191opt
  Br  3.68474718445954      0.28568770917332      2.54529148822062
  C   4.82912337986894     -0.64771384702787      1.30888549080603
  C   6.20455472628316     -0.29477614503458      1.26955490537730
  N   6.97603552364775     -1.08389173232309      0.46235494620832
  C   6.44136732099094     -1.93653961027729     -0.35003286409258
  O   7.27500612975083     -2.56446614303003     -1.21573615451795
  C   8.67056302134893     -2.38974478599301     -0.97573772947152
  C   9.18943286450566     -0.94127078931451     -0.98452811778625
  C   9.21973052163371     -0.35543304334464      0.41453799484152
  O   9.79703339431452     -0.87494065231891      1.32806025941345
  O   8.65462881780614      0.88155908740504      0.49800446648319
  C   7.91793716293659      1.21152151748240      1.65002626543191
  N   6.75538954493895      0.74242687176455      1.93083794143709
  C   5.05974715380816     -2.20668753495234     -0.36296017979849
  N   4.28185614089295     -1.53607606906999      0.55855868293027
  C   4.47356579522906     -3.14132729745577     -1.24304682532459
  C   3.99468089218669     -3.94573956718926     -2.00589801261543
  H   9.13806680785319     -2.95164006937501     -1.78218368549832
  H   8.93821169608438     -2.84505028446231     -0.01927472329371
  H   8.58561250686147     -0.32131263086852     -1.64449794221453
  H   10.21821214970582     -0.95458542905385     -1.35541637015217
  H   8.35010902761081      2.02957348244183      2.20643037089897
  H   3.57238823728087     -4.65357303717599     -2.67523020728313
