21
Coordinates from ORCA-job 15201optt
  Br  1.77281684408418      0.16466131536952      2.38925465326294
  C   3.20672407396860      0.17085896719975      1.15820119297197
  C   3.64370543540735      1.35027787472442      0.52982594451951
  N   2.89310261434128      2.35953561332384      0.05386607336467
  C   1.65617968217211      2.27775870354096     -0.32451531857674
  O   0.86081075593482      1.15800619192991     -0.55101049095477
  C   1.51628955074835     -0.01618834899782     -0.80043522530212
  C   1.05265903956889     -1.16991452784159     -0.32683928412759
  N   1.82955839824511     -2.34172976323020     -0.22753510060897
  C   3.01057258349447     -2.26317675944588      0.24203033222640
  C   3.77390728535352     -1.02688170757351      0.64151666488100
  N   4.97960679919296     -1.06468852253054      0.17411329765090
  O   5.70187446745207      0.11889054448384      0.35682103264213
  C   5.08293381492413      1.35972096615638      0.25314529473805
  N   5.78429947949062      2.37318615567071     -0.03375538241213
  C   0.94167210080930      3.46671356931565     -0.66316800180987
  N   0.34114882216134      4.41525902311306     -0.92352594750234
  H   2.45186182556009      0.06715536124791     -1.33848094962038
  H   0.07722756594467     -1.21817154176085      0.14023004336616
  H   3.59321254786832     -3.18126591619503      0.29070268496529
  H   6.74683631327776      2.07899280149945     -0.19344151367413
