24
Coordinates from ORCA-job 15208optt
  Br  2.16969897214327      0.03027539611500      2.00454712833369
  C   3.58860808277939     -0.44129471767721      0.81458596757848
  C   4.94914416689560      0.01816291890259      0.88515869381480
  N   5.79372359461992     -0.71325037998129      0.12697187859442
  C   5.35035165961019     -1.36272658361461     -0.91280100604688
  O   6.25969782206876     -1.59747099851397     -1.92274926840364
  C   7.47289630514766     -0.93798023362923     -1.69388402584424
  C   7.41823826392501      0.34401706824730     -1.32139895308627
  N   8.34859094614451      0.90203340367863     -0.47193811922766
  C   7.95883726144953      1.36664315076865      0.67488838604045
  N   6.78396683572627      1.62539556026214      1.31688514507496
  C   5.53760464093572      1.19775133641896      1.43846323320434
  C   4.67741394119603      2.16473702122808      2.25110312402176
  C   3.81600463740904      2.99367966346861      1.40845230356784
  C   3.11942021432683      3.67086168594871      0.70449505594430
  N   4.10733436961965     -1.76084693888831     -1.13724723466259
  C   3.26097948550246     -1.34208371619448     -0.17044059610676
  H   8.30591485027894     -1.58574232882260     -1.45346155475843
  H   6.50705154097771      0.90342932608689     -1.53189672593958
  H   8.79099086415329      1.73921903204398      1.27589526126856
  H   5.36888881154659      2.81069050569686      2.79035408276827
  H   4.05822678076117      1.64416243835915      2.98074313558616
  H   2.49907053467693      4.25759640421283      0.07251094025242
  H   2.24434541810534     -1.71425901411669     -0.22823685197440
