23
Coordinates from ORCA-job 15214optt
  Br  2.32786926628628     -0.00886335224566      1.79280067501499
  C   3.74120980385283     -0.56870354659064      0.63044760072442
  C   5.02770926824348     -0.08610322360390      0.77439891865920
  N   6.01951934956741     -0.55363078881193      0.00023818814576
  C   5.76275310958576     -1.42466371269985     -0.95374002793440
  O   6.84704369247155     -1.81232180702858     -1.74537294721794
  C   8.06153413702139     -1.53092804259530     -1.15220791841282
  C   8.33559178253894     -0.27576932303697     -0.81587936806006
  N   9.20930472452718      0.04330598795958      0.21894823976549
  C   8.78980433711787      0.54975948229100      1.29272271495678
  S   7.31194032763587      1.13932483121391      2.12458060475332
  C   5.51779651453032      0.99062401161487      1.67222966155503
  N   4.90712831783405      1.90472011316255      2.28451964702899
  C   4.52433303450527     -1.94730153572279     -1.20675710463041
  C   3.43658214796468     -1.53550623546981     -0.36909061241369
  C   2.14593310232440     -2.11453200861080     -0.58971714107032
  O   1.91488164300225     -2.96077422761292     -1.46679520952039
  H   8.59050922806225     -2.38420632218333     -0.74330280509118
  H   7.75165338941894      0.53579191956250     -1.23266701434377
  H   9.54172932782384      0.78096196777750      2.05294596457656
  H   3.90108850734229      1.83465666803258      2.15123018114839
  H   4.34449972538168     -2.67156165438224     -1.98692537451674
  H   1.33158526296141     -1.77127920101977      0.06339312688275
