25
Coordinates from ORCA-job 15213optt
  Br  1.42928385572146     -2.04168432387526      0.85456740653061
  C   3.19590467941544     -1.66568919669727      0.14590674475417
  C   3.45372378681410     -1.92153813911821     -1.17136893197188
  N   4.67769072887860     -1.51593411142747     -1.67779832333817
  C   5.84417370999322     -1.43733032007104     -0.88027333383469
  O   6.93434242199672     -1.37615298934065     -1.44156453595951
  C   5.58294138805011     -1.45378895362852      0.53320668079731
  C   6.47989095301475     -2.34543454846656      1.34318444920778
  N   5.80108354336665     -3.69670585031393      1.40258057479572
  C   5.65068946352670     -4.30175518761795      0.16884196954110
  O   6.56758076941998     -4.51323339598820     -0.58697494071823
  C   4.21838789440477     -4.70833144018231     -0.23762127661751
  N   4.06077239331444     -4.69603313353489     -1.67409616631791
  C   3.35762929819811     -3.87410431135837     -2.50074253727303
  O   3.26174915439997     -4.08416492314014     -3.68392753853268
  O   2.70736874643920     -2.79285087018554     -1.95627659729638
  C   4.23621621581951     -1.31816174307632      0.99346010188078
  H   4.82896986838777     -1.50968391231539     -2.67713851741546
  H   6.61841121046748     -2.03047069511844      2.37906197815708
  H   7.44878529859314     -2.47427405241169      0.86649494518497
  H   4.88940219810218     -3.54168741831295      1.81894431081134
  H   3.47358117112414     -4.06438769134308      0.22062712935935
  H   4.04193428340008     -5.72554286824510      0.12763461448685
  H   4.68527064186215     -5.30021666108628     -2.18547035923032
  H   4.02721632528919     -1.07484326314435      2.03174215299873
