22
Coordinates from ORCA-job 15216optt
  Br  1.14017570858367      0.41551805627916     -0.04170388261607
  C   3.01751082750872      0.31837359052368      0.07533326176083
  C   3.72630637656407      1.49999073343456      0.08839839134215
  N   3.33617739284009      2.77071597374427      0.02106123775809
  C   4.41195247064205      3.72018622889365      0.29053047121093
  O   4.36366122199628      4.90988586421827     -0.08419845316213
  C   5.66687487334719      2.83068520038811      0.10320052729201
  C   6.68823814449232      3.10382600590880      1.12112020899491
  N   7.50170160323982      3.32448657006102      1.89797878239633
  N   5.10905510890452      1.48419611101104      0.20249873246691
  C   5.77451729960258      0.29717774902802      0.14040431539312
  O   7.12882609122631      0.46400687318262      0.15805681446230
  C   7.90408617751409     -0.39811448583080     -0.55800685947362
  N   9.14553262807987     -0.47353775221882     -0.42445130684249
  C   5.13210625791990     -0.88416788569885      0.10976076886925
  C   3.66400284038806     -0.96272064802218      0.08421828773861
  O   3.08601146251995     -2.04988913162184      0.06222705272669
  H   2.36669495326337      3.03414567099098      0.07829505855483
  H   6.12950913261256      2.98964128731362     -0.89012662977144
  H   7.35140851586971     -0.99596016290582     -1.27901365416534
  H   9.46637659131729      0.16391903206698      0.30598923717854
  H   5.68027432156740     -1.81436488074652      0.13542763788557
