24
Coordinates from ORCA-job 15212optt
  Br  2.09086638139980     -0.63794356454180     -2.44775261113731
  C   2.94082860141292      0.27940161932968     -0.96066431289041
  C   3.44991327488190      1.50775232403113     -1.07619164879898
  N   3.20727768250840      2.33969601751693     -2.19455713459139
  C   2.42811225740929      3.47687568750986     -2.12447993125360
  O   2.47330003385013      4.31014521423346     -3.01370748216741
  C   1.60696426273422      3.68586522180899     -0.90427356805871
  C   1.10588484933662      2.71400014347091     -0.13639908757204
  N   0.53476145511879      2.86907570902649      1.10761469170048
  C   0.53454640310276      1.87705523527324      2.09995946168452
  N   -0.13989052084763      1.98369446810329      3.18479342497004
  N   1.25278387757147      0.72045085177867      1.86155014518430
  C   2.59903243510130      0.65604928346298      1.33984072537440
  N   2.80896386113458     -0.29665012597707      0.27581534810875
  N   3.33221411769936      1.76827489570261      1.32439160430316
  C   3.97470961482898      2.14408281986157      0.19872716308444
  O   4.82208474472044      3.03199905641296      0.11402024410787
  H   3.88882815028170      2.38422941757062     -2.93796229724907
  H   1.55299313144022      4.72362277793826     -0.59749173940408
  H   1.11259911919450      1.68627410220470     -0.46348582693953
  H   0.51166126281501      3.80739798359864      1.47696984387423
  H   -0.74283620563207      2.80055517049789      3.14698907204877
  H   1.04008905838372      0.05719796501578      2.59384769747482
  H   2.37331215155355     -1.20110227382984      0.33244621814674
