23
Coordinates from ORCA-job 15224optt
  Br  2.56151427164068     -0.80673472103127     -3.26428773012179
  C   3.34212463302057     -0.60781277818244     -1.52933983253019
  C   4.06252336119773     -1.67519794547674     -0.95855585200541
  N   3.39852195613093     -2.95621838508537     -1.22245573930762
  C   2.36055423695466     -2.86556725832013     -0.52052828607716
  O   1.19449426224346     -3.56701780233710     -0.71896004976528
  C   0.09466450539118     -2.87108434034672     -0.26592922359430
  C   -0.11423308402503     -1.53889429829414     -0.33178944364947
  O   0.63492664315524     -0.65165967989567     -1.02493550739056
  C   1.42150365712355      0.29664458078146     -0.34505915000388
  C   2.75743162374925      0.29123734845391     -0.57323677702690
  C   3.75656462052555      0.78678084334778      0.38928933284441
  C   4.80245701972805     -0.01119115338404      0.67472124932609
  C   4.86470538351301     -1.41818121101209      0.19015723941206
  O   5.47151770618976     -2.27912456523176      0.86383064663578
  C   -0.91337617230536     -3.69768463653291      0.32401414144024
  C   -1.76446372120285     -4.38940516951154      0.81055589354858
  H   2.24069674569981     -2.14742718296497      0.29247720107646
  H   -1.01215565984387     -1.15407275386402      0.14468493413921
  H   0.89701607742879      0.93185986168304      0.35901033933593
  H   3.59933762876287      1.72808913035507      0.90479922695051
  H   5.53208117116045      0.26653694505796      1.42645547235249
  H   -2.51540686623848     -5.00587482820828      1.24108191441078
