27
Coordinates from ORCA-job 15226optt
  Br  3.79868374904654      0.54098658776381      4.29575850633945
  C   4.05424785174232      0.64681763057246      1.82747432684652
  C   4.01939224403567     -0.56542433071352      1.15705128152155
  N   3.04997106437559     -1.57101247807348      1.43691531842732
  C   1.79470862924867     -1.49259962270915      0.90025132238062
  O   1.24175711193328     -0.46086232963903      0.60965190692902
  C   1.20885073953292     -2.84893719108586      0.53015625248081
  C   2.13162050437277     -3.45877120464979     -0.53396288649890
  O   2.62915189439099     -2.40789348769562     -1.34976955815022
  C   3.98002601125095     -2.44571792754664     -1.70647568668958
  C   5.03474340620207     -2.13947587514974     -0.61056656294053
  C   5.22092471985932     -3.27118134026765      0.30381559265135
  N   5.36403178381547     -4.18043891203974      0.98964779498776
  C   4.92852911402979     -0.79941201485276      0.12062482347430
  N   5.81118555518738      0.10506807590382     -0.29393302447957
  C   5.80068759356184      1.28956422295290      0.32536611070836
  C   4.97184495324684      1.59319359379825      1.39109569006942
  H   3.38793979981096     -2.47859303594689      1.71792215209588
  H   0.20986173546688     -2.67157486963514      0.13828542190098
  H   1.14255658685799     -3.51571833807230      1.39285051407958
  H   2.95075342015776     -3.99806182766140     -0.05860281208204
  H   1.58409733887776     -4.16954834640772     -1.16090461048589
  H   4.10336959680466     -1.67107064440735     -2.46338903560522
  H   4.23811728253324     -3.41488080634752     -2.15390313111207
  H   5.97554882520737     -2.06495478010020     -1.16349314485990
  H   6.51080394173093      2.02183570576304     -0.04874570045322
  H   5.05559454671989      2.55266354624725      1.88887913846423
