25
Coordinates from ORCA-job 15230optt
  Br  2.08368991995599     -0.70810011226416      1.14590713573829
  C   2.10848339128171      1.09195849301654      0.44001931626140
  C   2.69386987882667      2.17290242649959      1.18779693723293
  N   1.82660620499582      2.90635945046751      2.02153493127735
  C   0.63725308508488      2.55337404121023      2.24417496032014
  O   -0.23531461754646      3.46132002419776      2.81743824899320
  C   -1.24511918733218      3.87280126429260      1.91091697133613
  C   -0.70286841935404      4.28976440850029      0.52323375199765
  O   -0.93107792656003      3.22620307684781     -0.38386375790919
  C   0.00271703093937      3.12263884576957     -1.47913966531355
  C   1.30572125702264      2.55382802674079     -1.05139631390656
  O   2.30591632748787      3.45439748867938     -0.79165277766650
  C   3.24276559177755      3.14457532378971      0.22064090806547
  N   4.35616635899161      3.73688200553477      0.21617073671210
  N   1.34940616099951      1.31194011393325     -0.60027133133193
  C   -1.35963160203671      5.51518747779689      0.03591592725863
  C   -1.90130050369887      6.50647317180608     -0.36618944507623
  H   0.16933120186984      1.61671996186887      1.93198620590944
  H   -1.74752909732517      4.71048344219013      2.39152124812376
  H   -1.96981092861868      3.06908939964001      1.73768936478333
  H   0.36943506527842      4.48698182372767      0.63368991757277
  H   -0.48250947263696      2.44284322918928     -2.17729543026302
  H   0.13393446971711      4.10442586550508     -1.94359521732370
  H   4.38359558920353      4.39335356053391     -0.56505212750260
  H   -2.37572977832342      7.38559719052637     -0.72918049528934
