22
Coordinates from ORCA-job 15238optt
  Br  1.25428804066129      0.43167700507002      0.44038418953626
  C   3.08184785349753      0.12836610760404      0.11570297139333
  C   3.65818749381625     -1.08057694278277      0.13697727696311
  N   3.18654079422202     -2.34741826448868      0.36457198917245
  C   4.22512775116959     -3.30156962334965      0.25760238865757
  O   4.02290937008975     -4.49889950123880      0.41941405411899
  C   5.42353300900368     -2.55311514255301     -0.05188576956142
  C   6.72246025767601     -3.08991118946539     -0.24590232781975
  O   7.71687843159182     -2.41037764766818     -0.50055155263275
  C   6.86894010284066     -4.61049571861941     -0.12565042215683
  O   8.25182184459564     -4.96012084158107     -0.15850381328007
  C   8.83978387308775     -4.94151241668410     -1.34623081516650
  O   8.30243835012863     -4.87340597761494     -2.41336278373287
  C   5.06577545853036     -1.17651793044843     -0.12402776216697
  C   5.72549232651835      0.02476386594079     -0.37198320070372
  N   5.17648754084061      1.21848706229845     -0.39226884239894
  O   3.77051666042255      1.27135017614012     -0.14158811780162
  H   2.23398540443713     -2.60014944377567      0.56208656545433
  H   6.32449415966031     -5.10767611130010     -0.92835432292191
  H   6.47960877351496     -4.96945376832450      0.82315543410902
  H   9.92480644240251     -5.04626551380816     -1.21351323640599
  H   6.79007606129254      0.03882181664948     -0.57207190265574
