25
Coordinates from ORCA-job 15232opt
  Br  4.85926505685219     -1.57498369862084      3.48313282641198
  C   5.40604431438494     -1.04218511120322      1.73292418815440
  C   6.70884376633278     -0.59041745989616      1.53660538413743
  N   7.03276017774283      0.00096431585702      0.29650758018102
  C   6.26950151847959     -0.41159006558198     -0.80380305730419
  O   6.87019462612052     -0.21184954866386     -2.02955164600545
  C   7.92678864215130     -1.11385114074782     -2.31574803453905
  C   9.22620484831055     -0.81591805428789     -1.58812393568999
  O   9.23468750309852     -1.40481030965631     -0.29446425243335
  C   9.61741800273636     -0.63729119448936      0.74581835202187
  N   10.44383089868465      0.31878601124365      0.73686232181509
  C   9.03720147852742     -1.10656386751485      2.06755365679708
  N   9.79262036478707     -1.31978454524565      3.06265760662056
  O   7.74304768559077     -1.37881582368097      2.14365940045182
  C   5.07190620986620     -0.97534050440134     -0.66041474831498
  C   4.45439063504795     -1.13588668204135      0.68415736871379
  O   3.23934584010965     -1.38910450195531      0.78512231033062
  H   7.20280891077302      1.00177210679518      0.31648520781987
  H   8.10903797234359     -1.01126697463709     -3.38728137170274
  H   7.61100285830338     -2.14001249548418     -2.10345143636366
  H   9.33312175249209      0.26866970272865     -1.51437119827920
  H   10.06791630110951     -1.21853332350140     -2.15963324583729
  H   10.82581991432124      0.48667544474838     -0.19114294173050
  H   10.74828820622833     -1.09780943626062      2.79487180114182
  H   4.52395251560463     -1.34085284350261     -1.51837213639696
