23
Coordinates from ORCA-job 15239optt
  Br  1.22695703770366     -1.41465439425943     -0.09835374370686
  C   2.53021644448038     -0.05279768873901     -0.04050187439394
  C   2.29033972001573      1.13853268049666      0.54437977278331
  N   1.14315998783435      1.35556960855248      1.33722563428695
  C   0.05642323535272      1.83423520925538      0.92336945958311
  O   -0.26259818719472      2.20552946486110     -0.33162247419190
  C   -0.00505898272738      3.63520971676684     -0.59771351980530
  C   1.48146384839181      3.82410182621236     -0.50053697442531
  O   2.20741628524612      3.53794072160229     -1.48632192829160
  C   1.96756620440521      4.01749297036724      0.84679979268287
  O   1.40805830905742      4.66160883447861      1.74318562549211
  N   3.19591325138183      3.30931930428028      1.12323602278993
  C   3.40996981699764      2.07643007389397      0.56903961787291
  C   4.64017131904623      1.68518151998517      0.10767737614386
  C   4.87876861743757      0.41132870612878     -0.49018770691919
  O   5.93635259047566     -0.00562220000316     -0.95742221227934
  N   3.74456815850886     -0.39671247300694     -0.55728105624371
  H   -0.73910806647073      1.98222683181657      1.65583356115376
  H   -0.56403228758305      4.22988822948929      0.12636439340819
  H   -0.36802118651249      3.78488742691285     -1.61058145758492
  H   4.01908166571300      3.86678170380923      1.29797882375942
  H   5.46563352322394      2.38269923931244      0.10044291812041
  H   3.85975869521618     -1.27717731221310     -1.03401005023477
