22
Coordinates from ORCA-job 15237optt
  Br  1.21554823298523      0.41529479958848      0.14003597994428
  C   3.13548704802036      0.25663269673952      0.13516590516908
  C   3.69582454889869     -0.94834450734432     -0.20742181869578
  N   2.92293431871355     -1.98527006544760     -0.78016292073084
  C   2.56193094681581     -3.19370576404624     -0.27295507776667
  O   1.81410206244463     -3.92996012443601     -0.88831068091597
  C   3.08881683377369     -3.59074364090792      1.09102186584092
  C   4.54815253566196     -3.23953985177220      1.36492770468250
  O   5.33791471101471     -3.34088546378644      0.19156462817660
  C   5.93851310991775     -2.19097922906854     -0.29613155115855
  O   7.04474685830389     -2.28612337631039     -0.76771406907724
  C   5.14872554509114     -0.97612272751449     -0.19686795449779
  N   5.82036503904134      0.19892786248266     -0.10196653487500
  C   5.13066487356004      1.26325487076426      0.18461278470418
  N   3.79114075975089      1.37230564542276      0.41637331852722
  C   5.87536287977650      2.50497225596060      0.29401503905802
  N   6.45401249296414      3.49148497409632      0.38921769439529
  H   2.45315717312342     -1.77654114751869     -1.65181110578284
  H   2.92807122525251     -4.66560705194260      1.14914214099916
  H   2.45004327758154     -3.11811866508456      1.84321551838695
  H   4.95712187010217     -3.95281714436743      2.08398141458036
  H   4.64236365720596     -2.24511434550716      1.80006771903613
