21
Coordinates from ORCA-job 15245optt
  Br  1.29517670496297     -1.38390013669550      0.60932068964748
  C   2.93460400992933     -0.56953520870106      0.20673860267672
  C   3.23379520473480      0.70794452677072      0.50530844293422
  N   2.32250529502804      1.59527540069807      1.13443546923338
  C   1.85248062768001      2.55584933395618      0.13186006882953
  O   0.75177000605089      2.41055427799102     -0.35452094403430
  C   2.80345405059420      3.61450416849596     -0.20015781903886
  C   2.21779764801600      4.79760059342120     -0.83285796319279
  O   2.82047097933011      5.80794121219061     -1.14029649297072
  N   4.10010349982173      3.64034995460275      0.10889671027615
  C   4.91136555346556      2.60533765570993      0.43113682623574
  N   6.08738870951256      2.75413029918408      0.95020005489842
  C   4.53978006359894      1.17784905835628      0.12145136738136
  C   5.41445926078648      0.35153317530310     -0.49274437671079
  C   5.06459174800529     -1.01034765643055     -0.80692341380495
  O   5.73006848292704     -1.84235451509800     -1.35729031222664
  O   3.77827092371281     -1.39653712017459     -0.40970161167490
  H   2.84428791722950      2.11876127573379      1.83428258326077
  H   1.13235038292699      4.71566107414200     -1.00917264014757
  H   6.23462816575490      3.75688201271521      1.07623866904125
  H   6.40465076593176      0.68450061782875     -0.76420391061350
