22
Coordinates from ORCA-job 15243optt
  Br  1.05364839148862     -0.30355177672087     -0.42547159754636
  C   2.91741624337609     -0.11253084515116     -0.21468357965008
  C   3.68415310031356     -1.24772685803342     -0.11909827439494
  N   3.33169070432065     -2.55920083731224     -0.18285997256032
  C   4.43618552179776     -3.40967936773024      0.07154658605530
  O   4.34655049184838     -4.60910133580875      0.23092556431175
  C   5.65800954173617     -2.51954278842227      0.05947715548731
  C   6.42857550243621     -2.77327729208752     -1.23581506363729
  O   7.28943127507765     -3.66683718753676     -1.31097916952107
  N   5.03471567085560     -1.20045878511744      0.05264287089497
  C   5.65220517730479      0.00931337625060      0.03804595159886
  C   4.91539832814922      1.16152094486265     -0.05945001690995
  O   5.75203506154116      2.23208118972182     -0.02668149570059
  C   7.00551370132331      1.73952296387941      0.09165333021478
  C   7.02407043127770      0.38381132134960      0.13865682975802
  C   3.47164040201372      1.23016068707404     -0.17661183675347
  O   2.82099603171087      2.27005671051558     -0.23637627781700
  H   2.38053598473674     -2.87757268342301     -0.25888663224356
  H   6.30692355902170     -2.70186736909760      0.92590926313108
  H   5.93440847050438     -2.33263862474555     -2.12219872232118
  H   7.79490755631569      2.47030361826707      0.12110193942998
  H   7.87898885284999     -0.26678506073393      0.20615314817378
