22
Coordinates from ORCA-job 15247optt
  Br  0.52796876845851     -0.00324393131747      0.60305818281236
  C   2.91902212586077     -0.02680820556643     -0.30634214334255
  C   3.59023064099722      1.17493014682804     -0.13406657142214
  N   2.82040775177867      2.35342423818281     -0.00883095372832
  C   3.04334280885573      3.51520193906768     -0.66985156675033
  O   2.25300662723657      4.43364479436353     -0.70150788616978
  C   4.39224250969111      3.59931113456257     -1.37736227524203
  C   5.51616036042389      3.54417479670204     -0.37628504790237
  O   6.22244294861881      4.47170694562127     -0.10847433708906
  O   5.69982505235307      2.37095837402324      0.26309802507880
  C   4.99839451360678      1.20946101331723     -0.05184736333774
  C   5.77487905498622      0.07004457160494     -0.18037329035194
  C   5.10258738896446     -1.13085458767968     -0.36045404291181
  C   3.70812053098781     -1.14107414088278     -0.39749682369202
  O   3.32883099422107     -2.45536539063928     -0.57115692657429
  C   4.49223760692351     -3.12632579776369     -0.62527633902523
  N   5.57059542294750     -2.43871953948040     -0.51396516832896
  H   1.86620883000797      2.18455470092844      0.30828541589161
  H   4.44450546965449      4.54627135099819     -1.90162749576420
  H   4.47990769069837      2.75964921482618     -2.07158637923305
  H   6.85076274838707      0.13461389593673     -0.10797410462885
  H   4.41732015434019     -4.19455552363318     -0.75796290828802
