22
Coordinates from ORCA-job 15240optt
  Br  2.57692872156756     -1.35335172310296      2.07922198284694
  C   2.59406203117973     -0.10470658380980      0.57649300824760
  C   2.51282299456391      1.28032371139696      0.83071684332391
  N   1.59017214342810      1.75857498526860      1.81395698506467
  C   0.30168930572560      1.91539125391884      1.14380902281007
  O   -0.46083411184128      1.00330811648066      1.02784408158645
  C   0.30189226656671      3.23263198200963      0.46575778394279
  C   0.70699048685068      3.15457231886293     -0.80978749198120
  O   1.53382475824100      4.05366117004734     -1.36891698826101
  C   2.67081353231561      4.46667637158445     -0.53889886236417
  O   2.92586972580199      5.64252466430808     -0.60061172084099
  N   3.25974235898907      3.51816126146318      0.16831049422445
  C   3.20589314808783      2.17925193627598      0.03184944535970
  N   4.06982647487505      1.63208454246025     -0.93110307630963
  C   4.19878134665808      0.30450079469227     -1.23916039391280
  O   4.92348179007524     -0.11265985498008     -2.12399468738944
  N   3.41676283016380     -0.51619635046853     -0.46753802018051
  H   1.92803107248423      2.67875401993098      2.08341980034027
  H   0.64027065479524      4.08541201563912      1.04435345014225
  H   0.47594129789605      2.29491626881744     -1.43357318845069
  H   4.64076341818650      2.27637205731784     -1.45508310448793
  H   3.44527375338922     -1.49120295811324     -0.72106536371071
