24
Coordinates from ORCA-job 15252optt
  Br  2.31956757555085     -3.12079273761043      0.52762588368035
  C   3.52916734340499     -1.70912301382591      0.23118177053428
  C   3.82927591508157     -1.18399625349264     -0.96520766915799
  N   4.72560699939514     -0.07374658715079     -0.92459798398566
  C   5.77202705415146      0.00001741517813     -0.05646964340076
  O   6.67149871539201      0.81711446477714     -0.11484572033185
  C   5.69022838325231     -1.15448337991639      0.90086040647729
  N   4.37564859535119     -1.41683417277261      1.33617485693726
  C   6.69817327741799     -2.02302564080539      0.98711525971342
  N   6.44525804195686     -3.38632205857519      1.28850602132615
  C   5.84682453058527     -4.21882078829055      0.30941079882673
  N   5.77554741871717     -5.48760748367685      0.35858760128854
  O   5.36156555775539     -3.49168224608528     -0.68062439481823
  C   4.59902845354680     -4.00681402623354     -1.72663484432349
  C   3.84005059349569     -3.15541928465409     -2.47231794335894
  C   3.57169791630793     -1.74881520503106     -2.29844725134788
  O   3.27519396878316     -0.97239119189151     -3.25819756304626
  H   4.77699118688149      0.46684029316182     -1.77955282388922
  H   4.34851925936934     -2.14706503250685      2.03581967646913
  H   7.68812008416423     -1.73142701804628      0.65517725279934
  H   7.15357905025247     -3.87211765515741      1.81464211020402
  H   6.18454550673093     -5.83991473016134      1.21790640957688
  H   4.72227628220350     -5.06329184657476     -1.90073145752106
  H   3.42960829025219     -3.58528182065818     -3.38138075265205
