23
Coordinates from ORCA-job 15259optt
  Br  1.06754041754116     -0.08622900424166     -0.06601396228703
  C   2.95316791234962      0.01097703004751     -0.05407200909115
  C   3.66842606757747     -1.12386150411348     -0.05013382856369
  N   3.21679539832149     -2.43760765152132     -0.05132645948172
  C   4.24423827718970     -3.33625593561636     -0.04501731717571
  O   4.14656958106201     -4.54098550607445     -0.04340725630700
  C   5.52246142844425     -2.51196600805682     -0.04088053432027
  N   5.03130055017231     -1.14987075746926     -0.04397778923106
  C   5.72255109354683      0.08943792672886     -0.04269170697209
  N   5.03567916827771      1.23747651220962     -0.04354459944954
  C   3.67460474565689      1.29724099528708     -0.04828102912422
  N   2.98741629784991      2.39283354565985     -0.04795208124574
  C   7.13631572113631      0.08979197640504     -0.04083790258277
  N   7.87686531705768      1.22759097778234     -0.03928306761496
  N   9.14933971858009      0.73207093316275     -0.03855946422483
  C   9.13932883419801     -0.60964779793450     -0.03967994740811
  N   7.92176732852775     -1.06465434194239     -0.04089714632415
  H   2.23837912448580     -2.67655973430960     -0.05482728975697
  H   6.12972399443276     -2.74741748125471     -0.91601297696505
  H   6.12341412835729     -2.74580333476389      0.83906687580019
  H   3.65842437703365      3.15966209882011     -0.04341344617474
  H   9.93156111458271      1.35920087986563     -0.03770993981841
  H   10.04012940361856     -1.20542381867036     -0.03954712168099
