21
Coordinates from ORCA-job 15255optt
  Br  2.04542936180158      0.13798857089963     -0.69915024044828
  C   3.10228448116003     -1.52843857202757     -0.58400619222461
  C   4.03949658517718     -1.74412021315705     -1.66252684969829
  N   5.08181683067633     -0.74867601924441     -1.63461436846527
  C   5.67918442167378     -0.53886878042410     -0.43309960031395
  O   6.58750500323907      0.23721312149146     -0.21145515400508
  C   5.13798414284903     -1.52593169122030      0.59969084694445
  N   3.76976215727481     -1.66999843756878      0.65281308893489
  C   6.03536733744747     -2.34184163689666      1.18436915098752
  S   5.57635180098044     -4.00692380789921      1.54712895160295
  C   6.20658577034163     -4.62567883832666     -0.05283276651765
  O   7.24887062855732     -4.28837091990000     -0.51386655525302
  C   5.35469828554425     -5.69980167492128     -0.74493571061197
  O   5.70252496004146     -6.84381267136614     -0.69784585935334
  O   4.24262930496316     -5.33437177173612     -1.38087391398836
  C   3.77613332548196     -4.00948170976607     -1.39681334877600
  N   4.50985552125912     -3.04191780080018     -1.74296536239391
  H   5.41271087059221     -0.22366267656839     -2.42987356703601
  H   3.38950771313421     -2.24138637127638      1.39504873086080
  H   7.08890538889753     -2.11850630808779      1.11817582250381
  H   2.72139610890737     -3.97941179120392     -1.14736710274868
