24
Coordinates from ORCA-job 15253optt
  Br  1.98981255415745     -0.42592919438376     -2.04956422918733
  C   3.70735476247029     -0.43991397156072     -1.16038258989820
  C   3.70328336814289     -0.32032644183931      0.23998576630193
  N   5.01149018996850     -0.12263970431292      0.73416568042987
  C   6.18471136763161     -0.47783982390676      0.07972710983307
  O   7.26344030380129     -0.42065714416904      0.65938048567425
  C   5.95075459203887     -0.93108123112945     -1.28725365872185
  N   4.73457540916919     -0.71620488920858     -1.88823076581685
  C   6.57434636313560     -2.25202248094746     -1.55332037170204
  N   7.78299071112093     -2.56977040337556     -1.73797695277335
  N   5.59447430280337     -3.27829471119012     -1.30088210108446
  C   5.88492610355354     -4.17564690327633     -0.29874098612858
  C   5.17019928310928     -4.32202928097806      0.84384839141543
  C   4.21754702798470     -3.32390699411723      1.30756890119490
  N   3.46612086257610     -2.63640325541469      0.54031119292998
  C   2.93328770364914     -1.40325930572742      0.96840369852399
  N   1.99269300062892     -1.30706941830652      1.80840202914675
  H   5.13947211395111      0.13619974265682      1.70116235070899
  H   8.33092753589526     -1.71594481154546     -1.80795198921065
  H   4.66671319663515     -2.88202297008750     -1.19185860661287
  H   6.81448946672688     -4.71669400417534     -0.43124553428966
  H   5.53602627202183     -5.03422336024195      1.57101881531134
  H   4.26682126276505     -3.08750086763825      2.37836441574447
  H   1.75454224606296     -0.32081857512434      1.90606894821086
