22
Coordinates from ORCA-job 15267optt
  Br  1.06682782649407     -0.03622833512921      0.06304112046227
  C   2.96320256821125      0.03096139378841      0.06525173148175
  C   3.61239626620384      1.25800288118457      0.06696292937039
  N   2.95293733912153      2.44529557047690      0.06761229153195
  C   3.58026842683714      3.71145871340979      0.06958987207373
  O   2.86280706668658      4.71778063991171      0.06954740985853
  C   4.99444013095254      3.63324924848279      0.07016300085592
  N   5.69717816456494      2.49579925162951      0.06945938183599
  C   5.05085999600335      1.31165598420787      0.06806715345256
  C   5.74578684692091      0.09404289543356      0.06729040489758
  C   5.08548579344654     -1.14001728338302      0.06575159069449
  C   3.69145063125670     -1.16757306371552      0.06481838398700
  O   2.97699495831819     -2.32391719874469      0.06338748874268
  C   3.63440092339033     -3.49048642381691      0.06274940741783
  C   4.97100553145268     -3.59353390336257      0.06342394755641
  C   5.82207076243727     -2.40886974845494      0.06483003858308
  O   7.04631696802245     -2.48008418049811      0.06557618232502
  H   1.94311491090933      2.46296259860927      0.06688258640142
  H   5.53907138880397      4.56937828963926      0.07120911439114
  H   6.82644193307000      0.10495756785249      0.06792553082131
  H   2.95075813595876     -4.32789754702960      0.06163724867537
  H   5.43818343093758     -4.56793735049155      0.06282318458357
