22
Coordinates from ORCA-job 15263optt
  Br  1.09471614226424      0.10204407948829     -0.61616744259598
  C   2.89914154640713      0.12100397515914     -0.06806416536562
  C   3.51352683703833      1.28202184320659      0.17213365085037
  N   3.06983452962130      2.59108390195508      0.06059252519146
  C   4.07767953190936      3.49486946495359      0.23524103267643
  O   3.98836276542067      4.69895693998391      0.22505469251197
  C   5.35466176431199      2.65287412229675      0.38700764258138
  N   4.82815210355392      1.33405266329235      0.61894488929116
  N   5.70138071688499      0.26258623681018      0.37811628764429
  C   5.05982435762243     -0.90107536469652      0.21441419495769
  C   3.67022787857508     -1.13917275149981      0.04563393746645
  O   3.13000490048358     -2.26436211347841     -0.08015341118713
  C   6.26029914493972      3.15209161350961      1.45877348714355
  N   7.37467974202217      3.78229953411375      1.31166513959524
  C   7.78726936757546      4.06242108171611      2.60283966544727
  C   6.87654104979577      3.57271145297930      3.46591900377059
  O   5.88845638914355      2.99077943097534      2.74240778552808
  H   2.10799653021369      2.83818233216697     -0.10922078215164
  H   5.92741097123076      2.71104532818174     -0.55366185731382
  H   5.70907057900507     -1.76666343573481      0.14107059894417
  H   8.70496499598732      4.58532310002916      2.81047658749591
  H   6.78379815599339      3.54192656459166      4.53597653751814
