22
Coordinates from ORCA-job 15275optt
  Br  0.94564952765848     -0.17670288210158      0.31581714649762
  C   2.82528041386223     -0.02211244988500      0.10617675736611
  C   3.63548971253770     -1.15205719983954      0.02728088067580
  N   3.40427134302724     -2.50703085389779      0.08800984062054
  C   4.60242308788701     -3.21923165771807      0.00923668713719
  O   4.70592640756088     -4.45581575934425     -0.00371162796283
  C   5.63011519285336     -2.22435678448264     -0.09757824018177
  N   6.97033171914678     -2.61651178892981     -0.26022165046693
  C   7.98506830766298     -2.09038829770103      0.45803238755314
  C   8.09088097749170     -0.99749157117673      1.27848696435745
  C   9.45124213154642     -1.02882424192060      1.65034708555461
  N   10.11269270171255     -2.02128671104047      1.12582585077012
  O   9.17058307879200     -2.70462952328689      0.35556938635735
  C   5.01817810451687     -0.98142464484206     -0.10894021387078
  O   5.57441464438338      0.26721768793274     -0.20673300334463
  C   4.65542961063845      1.31232321757547     -0.09694821130674
  N   3.38308290386419      1.19210946746518      0.04634049212594
  H   2.50155572189522     -2.94236123422994      0.15952755286434
  H   7.07020994644673     -3.58962359389448     -0.52137210668558
  H   7.31997069956679     -0.29693580150916      1.53730438083185
  H   9.98384873301932     -0.34794840428827      2.29811900413812
  H   5.14735503392956      2.27008302711495     -0.15456936303092
