23
Coordinates from ORCA-job 15277optt
  Br  1.08184794992375     -0.02156993368641      0.33620209587917
  C   2.95980967430206     -0.00464262704210      0.10393847271665
  C   3.64726377665375      1.15766180050531      0.13972160078242
  N   3.06588831410751      2.38337056102627      0.24762322405532
  C   3.70291566892298      3.63096413669142      0.13614955385266
  O   2.98647948345264      4.63334506025992      0.15675453695869
  C   5.13544688230705      3.62244190973605      0.01744360907235
  N   5.83410569316781      4.74467085770577     -0.09052170864534
  C   5.81535592298196      2.33640256700239      0.04905845887055
  N   7.10707752843001      2.30105072349840      0.03342808053820
  N   7.70732006231566      1.06150204703107      0.08250208754077
  C   7.13578724313784     -0.16029822309703      0.15407361445461
  N   7.75179182422933     -1.29040286177703      0.21465814667540
  C   5.66082146096639     -0.11935502469049      0.13132719222083
  C   4.95908518713616     -1.25005223694707      0.12848384812018
  N   3.55299602489250     -1.29876364897840      0.13357937867962
  N   5.04728085237738      1.15829736225146      0.10566169215121
  H   2.05942763739771      2.43098104323621      0.28249385420768
  H   5.14755364053585      5.50049745124175     -0.07248494970700
  H   8.71135488047254      1.11797682857577      0.07675337803332
  H   8.75983186179275     -1.14812605102767      0.20369145513801
  H   5.49307721582601     -2.18797915585778      0.15260078803697
  H   3.19948121467029     -1.89197258565782     -0.61213840963228
