26
Coordinates from ORCA-job 15276optt
  Br  -0.09441533399265      0.34705133472283     -0.72725996187226
  C   1.23945588647282      2.22765989295540      0.35867679123339
  C   2.50988677459186      2.18001627976497     -0.15049277239388
  N   2.67634951392578      2.18777271236395     -1.56877341790967
  C   1.90683582962759      3.00867730232107     -2.36222076161325
  O   1.71232130921199      2.76222472117234     -3.53548021068091
  C   1.37569216284487      4.33759955065100     -1.78378921415458
  N   -0.07615471558628      4.33011710882370     -1.55378392715005
  C   -0.49242996402195      4.14363026825083     -0.26261178276019
  N   0.04777261231018      4.62494125446276      0.79079252849333
  C   -0.22365276958301      3.57132194947977      1.80309490663770
  C   -1.52046474500326      2.93102195709045      1.27980281963112
  O   -1.50762648957524      3.26113689570961     -0.11676093438902
  C   1.02193096451505      2.70476705321425      1.64455044516115
  C   2.13682992034387      2.76539972306779      2.46632008102767
  N   3.38511805565653      2.49630912703475      2.05351510146320
  C   3.56671206489857      2.28872003102979      0.75213391571713
  H   2.85244266032235      1.29697872774844     -2.01863524417995
  H   1.61224946763123      5.08507344354323     -2.54149027174726
  H   1.85374830813537      4.60739081951864     -0.84595546875926
  H   -0.57941428501765      3.73139381576595     -2.19695823791300
  H   -0.31860286527239      3.97812429325549      2.80950420182139
  H   -2.40790069603405      3.37227748462334      1.73885578419006
  H   -1.53530223371286      1.84520406414510      1.35284308392190
  H   2.04282402397437      3.10629466348241      3.49533631861383
  H   4.59379454333686      2.23089552580207      0.39978622761141
