22
Coordinates from ORCA-job 15271optt
  Br  0.91718332520616     -0.24798402912819      0.05984791329810
  C   2.78453503484083     -0.09943498317703      0.00589174892189
  C   3.41739836063777      1.07853048135123     -0.08665922173853
  N   4.81985002358318      1.12533293568415     -0.04107353069709
  C   5.27404704189340      2.49306082445083     -0.02247689916131
  O   6.45095805386596      2.80044728376196      0.06207311849100
  C   4.10119188586642      3.33089533570029     -0.12829442260073
  N   4.06637550150320      4.64245020719674     -0.17605155574817
  C   2.93216768481934      2.47766732304665     -0.18438753967006
  N   1.69736862719747      2.81842751032905     -0.30119985026930
  C   5.63582435526273      0.02758344243971      0.06799493600901
  N   6.88629109443453      0.01756997118015      0.27049037141227
  N   4.94931220944650     -1.21778060125454     -0.09831018963161
  C   5.74533495106492     -2.28747712799247     -0.48700941646136
  O   5.38818562422895     -3.43765619047949     -0.57006726828508
  C   3.53470723296382     -1.36112607785179      0.09638880516833
  N   2.95440720097249     -2.46561604450183      0.29336952522645
  H   5.02429645206596      4.98947153166502     -0.11806479316259
  H   1.68201027193221      3.84078693061484     -0.34547478880652
  H   7.22923274724371      0.97492756263838      0.30660593218026
  H   6.75859822395490     -1.95812454781404     -0.72801936112230
  H   3.61572409701551     -3.23495173785962      0.29942648664731
