22
Coordinates from ORCA-job 15278optt
  Br  1.23624785327447      0.06588230218255      0.80205096062736
  C   3.06904033968522     -0.00892403971495      0.28832025765997
  C   3.72903889356967     -1.20110005785528      0.06644582479604
  N   3.05253527408293     -2.44685369903487     -0.03203680356861
  C   1.91658580246130     -2.62439064992784     -0.77728235985015
  O   1.31203583903152     -3.67328971246954     -0.84705620641789
  C   3.72022054483728     -3.55491059489796      0.51229804526368
  N   5.00287961043975     -3.57936011734501      0.61421437110004
  C   5.71519707551856     -2.50760446662778      0.21881888472336
  Br  7.59451356991349     -2.79223583350283      0.41326565515516
  C   5.15134869716786     -1.24585547446153     -0.04280790757137
  C   5.87445475361179      0.01066557577839     -0.32969875626382
  N   7.05272407427209      0.12711352949016     -0.84637811242699
  C   5.12681613997408      1.22638138651860     -0.00678537677462
  C   3.78619492626647      1.19645973829367      0.28652340543265
  C   5.80088028847834      2.48082591717440     -0.04818457238528
  C   6.34526968787627      3.55305801007051     -0.06409160047295
  H   1.61960603920859     -1.71835466947281     -1.31850705325506
  H   3.10609366220060     -4.40254547967548      0.77570243859548
  H   7.44884974325811     -0.77912616226943     -1.06662705959507
  H   3.26877900906058      2.12077028715897      0.50284747347810
  H   6.84768817581097      4.48839421058808     -0.08803150825003
