22
Coordinates from ORCA-job 15283optt
  Br  1.18711410413149      6.72105640347773     -0.84710561919413
  C   2.77623320910919      5.77589268683417     -0.49122459594267
  C   2.83597461097881      4.43735510387231     -0.45152058049957
  N   1.84695988138141      3.48977984753137     -0.77486482925489
  C   1.71356657753924      2.66540373919571      0.16217493366841
  O   1.37953652317550      1.37843278810354     -0.08520132271963
  C   2.54898128072346      0.62082264221672     -0.31606120994783
  N   2.38636164261679     -0.62956898149303     -0.54851342345305
  C   3.86919558127464      1.19756217885984     -0.23593504026403
  C   4.50069319396789      2.46134260201801     -0.10148867723570
  C   5.93027304030196      2.51711990555070      0.13734389935675
  C   6.36475100865650      3.81537345819952      0.21759323811870
  C   5.23189355469493      4.65840886510506      0.01991178479686
  C   4.10754727785884      3.84443535550532     -0.16716326030824
  C   5.14121485723993      6.08168186017530     -0.02910960974816
  O   6.00043543788644      6.91517696409803      0.10959421070546
  O   3.83769051674291      6.57612687287112     -0.27549909384884
  H   2.00693093561813      2.85894637528486      1.19717369136593
  H   1.39261685408982     -0.84792413344466     -0.53750551919697
  H   4.57896830766761      0.37976604218418     -0.27958629391642
  H   6.54261073357907      1.63281519618415      0.24767958040557
  H   7.37145087076539      4.15899422766998      0.39930773711245
