24
Coordinates from ORCA-job 15284optt
  Br  0.97260279227106      0.67186387473106     -2.59783458334495
  C   2.70612289099121      0.62436996535047     -0.76592828503977
  C   2.98345399410035     -0.61879238154269     -0.40917586989801
  N   2.10627413881231     -1.71575586962822     -0.43827274001628
  C   1.95243852391510     -2.46578781022070      0.69379106148936
  O   2.07402096967189     -2.01506743327208      1.81330363537356
  C   1.99426977517909     -3.96085206429433      0.45613301829527
  N   3.40280561546891     -4.34282170437457      0.59523827685245
  C   4.35320220560677     -3.61560922342218     -0.25248973986326
  C   4.86429969869585     -2.24873825107399      0.15480788444495
  N   6.10222502098243     -2.10311335145999      0.58239934820099
  N   6.36304524500126     -0.78579664107478      0.71665044013318
  C   5.27897614698595     -0.13779646618038      0.36002928364200
  N   4.29533307570511     -1.01004151575790      0.01222357917899
  C   5.17572566793150      1.32461287843087      0.23976189386690
  N   6.04181314202605      2.13844194594360      0.67990270614801
  S   3.78568146178629      1.94438236587406     -0.67501582841385
  H   1.80999125552356     -2.06362012419967     -1.33828768535263
  H   1.41404643787873     -4.48896069898193      1.20979162914378
  H   1.64456436585708     -4.23962501632435     -0.54008014647662
  H   3.66934096222906     -4.22082456912359      1.56686675356529
  H   3.93670731825302     -3.56730857053446     -1.26034067754325
  H   5.26252211522710     -4.21440265440330     -0.30435966301779
  H   6.79153717990017      1.61324331553914      1.13388570863171
