19
Coordinates from ORCA-job 15297optt
  Br  1.27447404724606      0.02730100644573      0.24755674438266
  C   3.14752282279637      0.09242685426554      0.07564536620909
  C   3.79145329709877      1.35113124843590      0.09888949418655
  N   3.20361962211345      2.57795097711932      0.21722494772433
  C   4.20148168239573      3.43432300238079      0.18570880294350
  O   4.04587120307878      4.78905806749643      0.26876625264335
  C   2.79892187559611      5.29225420426341      0.45503446516601
  N   2.56618289069577      6.52656609732126      0.49472247154453
  C   5.47604962120545      2.84205153940445      0.04875486804848
  C   6.73302164151871      3.48058660802878     -0.00695524129523
  N   7.76757851314653      3.98515273028440     -0.05357630097368
  C   5.19063531802797      1.46631817614854     -0.00962127245763
  S   6.22840666028268      0.10250589702024     -0.18558607456611
  N   5.21232026428704     -1.19177054616718     -0.19704819261218
  C   3.89002396194838     -1.07354697875665     -0.07157838749707
  C   3.20874107701474     -2.35252482829627     -0.10463490502877
  N   2.69933210621558     -3.38044934952437     -0.13514040168783
  H   2.02587277400814      4.53967838137297      0.56992730578927
  H   3.43149062132371      7.05198691275670      0.36191005748071
