27
Coordinates from ORCA-job 15295opt
  Br  3.11075835495647     -0.64849944533002      2.42344364252373
  C   4.40429266575364     -0.72844322205622      0.97048796802573
  C   5.70430053099259     -0.44670139210398      1.25015288341684
  N   6.55711330640376     -0.33983752001267      0.14038502765336
  C   6.30723397230223     -1.20668338613606     -0.94648096421310
  O   7.23425358794101     -1.54401288325919     -1.70323924633456
  C   4.96061374516800     -1.64414148396673     -1.02151573909370
  N   4.70217498433165     -2.76025064248741     -1.86075289031413
  C   4.69763226861799     -4.01254806930101     -1.09785812148305
  C   5.88515846862337     -4.18607115561650     -0.08363871461331
  C   5.55171982749706     -3.65602961898063      1.33082161313132
  O   6.63517340651189     -2.88026146697644      1.84570036928016
  C   6.31056293436682     -1.99551238167569      2.87265882681776
  O   6.32728777298507     -0.62562377996737      2.46257624972600
  C   6.28995154535344     -5.58901323227200     -0.01465505241927
  C   6.58299228947558     -6.75130417792193      0.05589866016923
  N   3.98030899933152     -1.22928559057940     -0.18010381276212
  H   7.53978249963999     -0.26932690205348      0.36173162528993
  H   5.46118851123042     -2.79364263717193     -2.53483564351015
  H   4.71615784424019     -4.84004077899355     -1.80745314615521
  H   3.75925940376471     -4.07396702526789     -0.54142835827007
  H   6.73080684783715     -3.60365421199235     -0.46135500787573
  H   5.36792224708002     -4.49648749340076      2.00817080246544
  H   4.64830386738956     -3.05101867048574      1.28498427029745
  H   7.07474316561245     -2.06200486168229      3.64752110614747
  H   5.32276740757414     -2.22952573182255      3.28064298878002
  H   6.86053954501858     -7.77511223848587      0.11514066331986
