22
Coordinates from ORCA-job 152optt
  C   -3.81541560988805      0.80356689262051     -0.00241329052741
  C   -3.17119178945545      2.03894046528830      0.00000949190706
  C   -1.78407697619864      2.15386659947611      0.00092192931459
  C   -0.99806977318642      0.96890447751327     -0.00060016776524
  C   -1.68144198466308     -0.28458978223139     -0.00313775767540
  C   -3.05397255737840     -0.39553439732110     -0.00408683494835
  C   0.38810114539604      0.69893161292071     -0.00028971644868
  N   -0.71590083718841     -1.27919891712735     -0.00429861739465
  C   0.55226149090056     -0.71938075207494     -0.00260085736663
  C   1.56113740796495      1.50206497426770      0.00181324945296
  C   2.80435409116213      0.87609323595254      0.00156918498798
  C   2.93942707255213     -0.51065464846578     -0.00070230031184
  C   1.78368510499569     -1.33647770806635     -0.00286872842268
  H   3.70130387995342      1.48759732211548      0.00316055674774
  H   1.48706173330577      2.58265004508444      0.00367976031962
  H   -0.90757942898992     -2.26338752563044     -0.00654707500172
  H   -1.30942107937664      3.12742016224408      0.00294426248799
  H   -3.77352005626674      2.94213924071342      0.00120408477766
  H   -4.89715052664278      0.75531164028131     -0.00309422048182
  H   -3.53713254280161     -1.36626207248111     -0.00613621517727
  H   1.86664219970691     -2.41769778724822     -0.00466702605325
  H   3.92389903609858     -0.96130307783117     -0.00085971242068
