26
Coordinates from ORCA-job 15307optt
  Br  0.75547594013872      0.09678132572814     -1.37673445868374
  C   2.84974356994920      0.02909894292784      0.09532178799807
  C   3.55576140016181      1.15688951843150      0.07427287170987
  N   3.09022356141382      2.50113075945732      0.03150055566005
  C   1.77353014186761      2.84726343432427      0.27525835387000
  O   1.38280481388183      3.99145119724574      0.25220950552522
  C   4.14587259632609      3.41107343766863     -0.09575357662409
  N   4.13484404228862      4.67000001182705     -0.15230793773500
  C   5.42350920848863      2.59484227293813     -0.13382991018679
  N   4.95155058917737      1.24418943372356      0.07425914478035
  C   5.67040397123514      0.08585566547485      0.07107419042134
  C   7.16331415183071      0.19476147825641      0.05220211706973
  C   7.78731529815803      0.58658192697046     -1.26620027144091
  O   7.19433731192844      0.89029173101828     -2.26021246254228
  C   5.03082872495581     -1.10282100445207      0.12422929672167
  C   3.56519087383325     -1.23759863843207      0.16308293156025
  N   2.96212704433612     -2.37099524116446      0.26344860878815
  H   1.14823747040284      1.97820891356155      0.49624223828345
  H   3.17732874909139      5.01432040428294     -0.11596515255417
  H   6.09791815891139      2.93887730149987      0.65375810569104
  H   5.91061970300024      2.71635589679529     -1.10408789573636
  H   7.60203535343772     -0.76567195595388      0.33590235255992
  H   7.52754509325270      0.91530899178572      0.79585768114478
  H   8.89732398377047      0.57572074357477     -1.25758443847460
  H   5.62906264837327     -2.00761499537894      0.14977471807780
  H   3.65409559978859     -3.12030155211095      0.29028164411624
