23
Coordinates from ORCA-job 15300optt
  Br  0.96594303718788     -0.32153112956783      1.52666098507732
  C   2.28536911468496      1.14742078982772      0.12835049243368
  C   3.39305675915490      1.82634116566699      0.61290426088770
  N   3.22183835111497      2.77886795883378      1.64623192843698
  C   2.25283045062365      3.56470708140817      1.48882409015937
  O   1.46628831031891      3.59985196729846      0.34190580151452
  C   0.29951448674722      2.87062813328723      0.39936796030340
  N   -0.33860259967520      2.85447329514531      1.48470281265891
  C   -0.19864954087702      2.26571369188430     -0.87172960931931
  C   0.13606792043172      1.25806138825283     -1.69605239017506
  O   1.20234287131496      0.45435110333959     -1.87634628313782
  C   2.35916217351071      0.71627021534826     -1.16309072418986
  C   3.58837376705149      0.62627220433682     -1.80423089951722
  N   4.71269173955704      1.04073309003056     -1.23495178129832
  C   4.61163828103512      1.68618001057279     -0.05999783934982
  C   5.80386922592615      2.29857849050151      0.45808019445590
  C   6.79337788569885      2.80797169632329      0.90694802039675
  H   2.01058079330702      4.32356044918671      2.22366465144558
  H   -1.13754761155534      2.23091554451667      1.41470856278966
  H   -1.19474313388617      2.63148232180629     -1.09973084977060
  H   -0.60812755901959      0.98722618624580     -2.43619882508398
  H   3.65544753066144      0.21783719138751     -2.80829078793739
  H   7.66727774668628      3.25808715436718      1.30927022921963
