24
Coordinates from ORCA-job 15302optt
  Br  2.21175560499257     -1.41443116697489     -0.06860712598646
  C   3.91584944645774     -0.59442943841378      0.20246297386231
  C   5.05864901368431     -1.29651218962490      0.68175282172990
  N   6.20040988046308     -0.56548616973477      0.73861495575329
  C   6.31848848913393      0.60627613844899      0.19588612734482
  O   7.61122230853209      1.06079505624137      0.06461855260615
  C   8.55578641699797      0.05686048588343     -0.06734014023201
  N   9.63877684607507      0.21414698611048      0.55133936715764
  C   8.22171283264339     -1.00770517789194     -1.05976784748046
  C   7.75801042315076     -2.22321401519293     -0.76912658542044
  O   7.68984819724470     -2.71942281889646      0.47738824865875
  C   6.49858473766193     -3.33146339127357      0.86947434300482
  C   5.24389750710127     -2.69526812721089      0.96915362937622
  C   4.19094405357211     -3.50024067593546      1.54227177510773
  O   4.28050109436897     -4.69352370895854      1.82243976019535
  C   5.25583669363048      1.36308638743622     -0.27888687075861
  C   4.02135898462972      0.71363429331700     -0.22774928609967
  H   10.26544477837653     -0.54813453456255      0.30489463772532
  H   8.26393796750319     -0.71385812573954     -2.10138998164201
  H   7.40230223609414     -2.89421017464159     -1.55020740623341
  H   6.65703358000175     -4.28442613428010      1.34933593025256
  H   3.27125586338364     -2.95811606053674      1.80643819793788
  H   5.38551176712918      2.34488330729259     -0.70802934966264
  H   3.13588127717108      1.21075925513866     -0.60196672719703
