24
Coordinates from ORCA-job 15309optt
  Br  1.10024986426180      0.16856515010788     -0.21451870294592
  C   2.97178651545787     -0.07633431635599      0.03161553694017
  C   3.63339610553519     -1.19153581483785     -0.41615826101611
  N   2.86778209213365     -2.30646011008764     -0.87830847373134
  C   2.34173060208675     -3.33436998897297     -0.15305184098778
  O   1.43120961919831     -4.01881589640027     -0.57376675896605
  C   2.98605627804467     -3.65818134697520      1.19712356231149
  N   4.41067394790341     -3.36574358402414      1.26862554554297
  C   5.12588918444224     -3.65959340780162      0.09230289123104
  N   5.16784529248363     -4.80706935659340     -0.44819000926125
  C   5.82148132675144     -2.47868992567013     -0.54862516713237
  C   5.04478671955663     -1.19037503836470     -0.42653050138196
  C   5.67493534246714      0.04352419000748     -0.11871871910614
  Br  7.55154580968074      0.24733633389893     -0.33477753200543
  C   4.99586038751185      1.22393247125690      0.23817564155947
  O   5.40657298942530      2.34356601366490      0.43970677748867
  O   3.58640695226248      1.05568671368287      0.43001373673345
  H   2.37575615145720     -2.17219038514214     -1.75211795908260
  H   2.77923045074414     -4.71360239108677      1.37337171379860
  H   2.47034518249557     -3.09140869565941      1.97395326727909
  H   4.55694805530318     -2.40176820579065      1.53620104566607
  H   4.66322132920852     -5.48941961235741      0.11822772896750
  H   6.03406770577739     -2.76108055383543     -1.58172690207801
  H   6.79122209581079     -2.34697224266319     -0.06182661982357
