24
Coordinates from ORCA-job 15308optt
  Br  1.16890509210027      0.09014736365946      0.23971703436783
  C   3.07515850572586      0.07052363171430      0.15466226412478
  C   3.77803682340528      1.26447100518867      0.16094931280222
  N   3.11431076191564      2.50223039330111      0.27059217546464
  C   3.65465753969267      3.69918598243232     -0.04271497504295
  O   3.01845452183869      4.73922694510743     -0.04234750423951
  C   5.12583749333001      3.68278558354162     -0.41792518004069
  N   5.83341435585483      2.54365674379198      0.11636877444457
  C   7.12473704473593      2.66105232264558      0.56011800800894
  N   7.89603425203782      3.68214870314600      0.54345632657314
  C   5.17693645054660      1.29125483705724      0.04069816454067
  C   5.85326386132611      0.04650229767412     -0.11170669033211
  N   7.15536563401280     -0.25410607097667     -0.25890884710957
  N   7.30795093340583     -1.55801704408223     -0.37586463302930
  N   6.04071413348594     -2.09619027767275     -0.29201226007838
  C   5.09052588095380     -1.14871496036268     -0.12180162349831
  C   3.70966831467114     -1.18994879803935      0.01717121305309
  H   2.12177287212104      2.49704205617404      0.45895045915463
  H   5.53719405392572      4.60574435601587     -0.01553958150844
  H   5.19318797198163      3.73071112715865     -1.51313090319556
  H   7.50395313378536      1.72908349095162      0.96641834137726
  H   7.46676983231695      4.48925734717245      0.09784591112210
  H   5.92585283906882     -3.09007321048532     -0.35753929808757
  H   3.13929769776117     -2.10597382511347      0.02154351112853
