21
Coordinates from ORCA-job 15316optt
  Br  5.58964466406170     -1.28780161064262      3.06312845227324
  C   5.37144123453320     -1.50596221813019      1.17566608472494
  C   4.80012875784577     -2.65367701558608      0.63894778966544
  N   5.24910093647786     -3.93975384975811      1.14808284507494
  C   6.62413825353456     -4.00964944193525      0.82507364042760
  O   7.03960222864411     -4.21629677759066     -0.28050804250014
  C   7.57338794437453     -3.64352951337287      1.95212440010873
  N   8.43651600107324     -2.73236428191382      1.86483436526086
  C   8.70235590676390     -2.02282314463359      0.67901986552748
  N   8.38803850857134     -0.85259340592558      0.36772923567390
  C   7.69502418633022      0.23295594540851      0.91854032414343
  O   8.25289606936350      0.99353578521539      1.67688249906288
  C   6.39108051501766      0.51301433769304      0.25318161348201
  C   5.37197745553703     -0.35794044372458      0.30511300901204
  O   4.27613784335396     -0.25430799469574     -0.48813616407868
  N   3.75031635977228     -1.54860894001992     -1.06922800564345
  N   4.11551745740878     -2.61148682796467     -0.49668690673473
  H   5.12978968682189     -3.93383512855726      2.15792218752049
  H   7.44472304597995     -4.14285538988263      2.91454948712432
  H   9.35706799715587     -2.58186817116817      0.00868759192468
  H   6.32911494737852      1.42684808718482     -0.32292427204999
