22
Coordinates from ORCA-job 15327optt
  Br  2.07332710061910     -1.37982759512488      2.48454523607310
  C   3.27227640050331     -0.05625527001451      1.16756311010995
  C   2.77674953513495      1.20163491770598      0.84679044941809
  N   2.12878044882319      2.11422128482783      1.73854835544075
  C   0.83275768575398      2.45423468570877      1.35500364222509
  O   -0.06187651981293      1.66394586497788      1.22980594239371
  C   0.62970974957452      3.90864173930460      0.90305379547748
  N   0.63530837071378      3.92716018290541     -0.56207315648450
  C   1.61515342598518      3.45819366115263     -1.19443872822062
  O   2.78443991003104      3.01757492698219     -0.67660261740558
  C   3.01657722736461      1.63106887536097     -0.46087077069521
  N   3.51585880709161      0.97321787625211     -1.45508341849496
  C   3.89562235435955     -0.32845252239202     -1.19711273196118
  N   4.33127330835635     -1.17125123406146     -2.05584732085218
  N   3.84755708405323     -0.73205350665120      0.14848691105737
  C   1.56638492038848      3.48746382888773     -2.65276292174340
  N   1.53230978729252      3.54451600616933     -3.79617970878115
  H   2.69863357509980      2.93536102957033      1.89134577691298
  H   1.41124805407600      4.57009624809878      1.28568027594001
  H   -0.34355655487519      4.26340076452279      1.23130164361012
  H   4.33452469429503     -0.72323215928133     -2.96705197155757
  H   4.19994063517179     -1.66265960490200      0.32089820753770
