23
Coordinates from ORCA-job 15321optt
  Br  0.22167006627543      0.22276937033142     -1.35463181693784
  C   2.03549514508521     -0.31292231060241     -1.14355558489361
  C   2.95707625439956      0.40861230441505     -0.33238886126090
  N   4.18127552930580     -0.19738217537197     -0.25678732853231
  C   4.51834871995850     -1.14585854965030     -1.08422165941599
  O   5.88921057845346     -1.43611015820689     -1.03419665859538
  C   6.44020074191173     -0.42996224676629     -0.26545835567628
  N   6.66209161152405      0.70647855227054     -0.75839896802107
  C   6.39878139742641      1.77169510065394      0.15439104881740
  N   7.05415352707719      2.16754916414914      1.16310105112373
  N   5.17212708850910      2.32141481981175     -0.24540500437121
  C   4.03485974176688      2.43124696237841      0.59115792712681
  C   2.88427928697554      1.67238515203678      0.34547957809643
  C   1.66648188244871      2.14785013375131      0.91850737227647
  C   0.67884685889355      2.57532529613872      1.45815049432938
  N   3.76535137633181     -1.82501588813085     -1.91867543174643
  C   2.46703280996286     -1.39772855926352     -1.86384147033632
  H   6.51014526018518     -0.67978447173796      0.79497643993464
  H   7.88530053083290      1.59244076119528      1.27303183127307
  H   4.91595849921739      1.90256801805706     -1.12945137424585
  H   4.04219647805953      3.21763473975328      1.33053770438322
  H   -0.21098059898844      2.93650572555008      1.91127244030994
  H   1.76009721438758     -1.94371174076259     -2.47659337363790
