23
Coordinates from ORCA-job 15322optt
  Br  3.42694829134681     -1.27421744520706      1.66609582453310
  C   3.38034027001765     -0.25063553219588      0.08049312554719
  C   2.85755251308258      0.98088418710884      0.03619897787519
  N   2.21643254758277      1.63439467285323      1.10659238601662
  C   0.89472510349920      2.13016438690202      0.74856098055564
  O   0.15374507706791      1.38258317802765      0.12097589751908
  C   0.68500425162120      3.52837005600113      1.03490863859919
  N   1.19177351454893      4.19698824557365      2.07863353384357
  C   0.05381797807365      4.33702234425617     -0.03490417858978
  N   -0.63303245183660      5.39626913194611      0.14002545767348
  N   0.28882721260715      3.94516570595529     -1.37975701814540
  C   1.21456467136906      2.99981178430156     -1.76192002696470
  C   2.45208303512447      2.98152956939192     -1.25738237462070
  N   3.12051465130588      1.71910688332826     -1.16434768401686
  N   4.46889102372291      1.77757848326349     -1.55543237234109
  N   5.12415034793369      0.75884057495891     -1.64348374104863
  S   4.28395430945488     -0.77720609749870     -1.29516025270113
  H   2.78045738092373      2.40318299701600      1.46374059745367
  H   1.49617016457410      3.53237070181331      2.78890469561968
  H   -0.74621335733185      5.52047826501504      1.14464358693049
  H   -0.47486254317390      4.15793538160039     -1.99975635866884
  H   0.87129675924723      2.17040135341779     -2.37287363050965
  H   2.83485924923854      3.79798117217084     -0.65375606456014
