24
Coordinates from ORCA-job 15323optt
  Br  1.73484958150900     -0.26170255896020     -3.24365809273180
  C   2.64014139441868      0.34269835209083     -1.67067546629742
  C   3.16048401482524      1.63180796136311     -1.64553310784773
  N   2.60908176198752      2.67224704333531     -2.40678535569309
  C   2.07388917965873      3.62496644870039     -1.78276513743528
  O   1.97209036176114      3.77658088826195     -0.40602763579763
  C   1.39558779919457      2.78276812869079      0.35459240415434
  N   0.40737353602335      2.15020064591687     -0.09044952483810
  C   2.02508560820405      2.64866667228022      1.75928214558885
  N   2.64835862591292      3.62944206524824      2.28448126193569
  N   1.77270357179442      1.46040044140801      2.41546603208494
  C   2.01958261535272      0.32694531984557      1.77755565110069
  C   2.89218262074125      0.21339923252447      0.67295420111692
  N   3.91130783714691      1.16602071900469      0.55391826307147
  C   4.06742074485181      1.98407297462552     -0.55767026587023
  N   4.87031460878601      2.98208391716976     -0.62122564264207
  C   2.51664541353592     -0.43082694886219     -0.52364945044388
  H   1.67435962974459      4.48674994019909     -2.30384148677868
  H   0.11453436340385      1.46783435779559      0.60589521730528
  H   2.66448667534007      4.40840976325860      1.62919097379189
  H   1.46982814370513     -0.55985462189350      2.09131790853536
  H   4.24470637783411      1.56209506591775      1.42174030791577
  H   5.34442124560161      3.11468863092518      0.27067831033033
  H   1.86956428866636     -1.29669443884608     -0.51479151055565
