22
Coordinates from ORCA-job 15338optt
  Br  1.26126483271515      0.21192087291232      1.19066378436456
  C   3.03684652144661     -0.02077686525165      0.59793529693741
  C   3.60243510684622     -1.19253366700911      0.24945021210221
  N   5.02517679308084     -1.14921451463439      0.03884679631535
  C   5.67607003905282     -0.00116420100790     -0.33277114961342
  O   6.81087733890198      0.02226529205961     -0.76358508362680
  C   4.95144264186742      1.29708432802794     -0.07291842433412
  N   5.46519569098874      2.43179997050264     -0.32045964717548
  N   3.74418757168126      1.17442632688132      0.55732222880059
  C   5.76491187002919     -2.34910135939426      0.22036801595043
  C   5.09709699454436     -3.56303683398352      0.30910774387173
  C   3.72446554641759     -3.63891651244093      0.16255990596610
  C   2.95336080558342     -2.47735064946549      0.02991448233087
  C   1.60982050159846     -2.57444963380237     -0.46443360157005
  O   0.97060283877834     -3.61669750131893     -0.58314088210901
  C   7.15670489719925     -2.30217984846887      0.46249882523509
  N   8.28143412013884     -2.40336866235034      0.70415624881308
  H   6.38741398858510      2.27008944446240     -0.72354208222531
  H   3.28330102515761      2.03051774061614      0.82224536469088
  H   5.69854672926356     -4.44819380731584      0.46113009853141
  H   3.22181777582905     -4.59263898829943      0.07714419965581
  H   1.15902637029415     -1.62848093071930     -0.80749233291134
