23
Coordinates from ORCA-job 15339optt
  Br  1.34983099853615     -0.19563074975786     -1.36585000341028
  C   2.78529384159152     -0.20723764296760     -0.11801875853089
  C   3.63235752861249     -1.27151358050457     -0.05780364162711
  N   3.49908503491186     -2.56344047662031     -0.43131722257085
  C   4.59240741063192     -3.35607819078793      0.05523540158369
  O   4.63463927094757     -4.58796836960717     -0.05178481751549
  C   5.49014486653854     -2.42892269055148      0.67385557955259
  N   6.61134733581846     -2.59377005012175      1.32045541270349
  N   4.89676579676912     -1.13465934706808      0.50825395542079
  C   5.59363421362119      0.05330263925632      0.24183776324074
  Br  7.29550446089966     -0.11258252927857     -0.59090934489584
  C   4.99602796012215      1.25281749355936      0.30114376565151
  N   5.58290864327711      2.48650925118882     -0.00080975357145
  C   6.80974066719836      2.85514694743232      0.65475874319432
  C   6.80213674675759      4.28950084067988      1.08774657031194
  O   5.87441425759918      5.03892469201630      0.94676839244393
  S   3.27670781401553      1.24948992495848      0.71592298691883
  H   2.61472144146395     -2.96899228907281     -0.68734792641532
  H   6.82478754564194     -3.58962940112093      1.28723930393226
  H   4.91459890310297      3.24571796808170      0.00458385470897
  H   7.69319152718459      2.71692694302984      0.01769565590043
  H   6.99993439864356      2.23759416513813      1.54432021306053
  H   7.74381933611452      4.63849445211792      1.55402386991321
