21
Coordinates from ORCA-job 15353optt
  Br  1.49806594055001     -1.94878647300128      1.52043672536481
  C   2.54713134974045     -0.67869157502143      0.59543638380190
  C   2.07052159601382      0.64688614529618      0.53091301559162
  N   0.89002276597899      1.02120355556463      1.19088907939550
  C   0.12000131633697      1.61468726091869      0.38818923946763
  O   -0.88892066023399      2.40636488695829      0.76686738325486
  C   -0.74861203352478      3.62089484332051      0.01557367999997
  N   -1.75488127363496      4.05252375648134     -0.62845251214573
  N   0.42229213864905      4.25276666450002      0.15638367299592
  C   1.69655832133654      3.98278938099227      0.30021287756855
  N   2.56829610176765      3.02020949545754      0.01512797617677
  C   2.74772532160755      1.71540081079597     -0.08532484699128
  S   4.26095906458956      1.41314502827090     -0.99828641836370
  C   4.55252502677826     -0.26749013096853     -0.74787523511963
  C   3.74611944505744     -1.09967662589199     -0.01674945816085
  C   4.19271161526665     -2.45978727035483      0.09664245923711
  N   4.59928701150343     -3.53280956193681      0.15421946763793
  H   0.28477896329890      1.60466161551786     -0.69445880127627
  H   -2.51830746206651      3.39080785909342     -0.52369712234422
  H   2.23719896433421      4.86670621774221      0.64816606869685
  H   5.46752648665070     -0.64080588373500     -1.18421363478775
