22
Coordinates from ORCA-job 15352optt
  Br  1.00902131165248     -1.81435256462841     -0.25074137972068
  C   2.57585761557058     -0.77732380645125     -0.08432672886640
  C   2.59728268422759      0.45537908663970     -0.61956064550014
  N   1.58055080497305      0.91134177902700     -1.48194256523467
  C   0.74592120120432      1.81359985717814     -1.25308052174275
  O   0.63094024436169      2.60822086296877     -0.16540694127280
  C   1.80258283207256      2.92356047321878      0.52653791192337
  N   1.81684909512372      2.98113833270384      1.77953978404192
  N   2.84399009676346      3.35086004052724     -0.28048148040693
  C   3.76816016992179      2.56766240388203     -0.67556318431699
  N   3.78284082996649      1.19746017076246     -0.59047439371247
  C   5.06954858411167      0.57193317673905     -0.35088065068842
  O   6.07793836108623      1.23383022564467     -0.59529612865933
  C   5.04073908361289     -0.72758650160002      0.26103043349196
  N   6.14977199268231     -1.34045644043440      0.62434315938032
  C   3.75259921302138     -1.39481628181422      0.53282803077498
  N   3.64955029542832     -2.49160796381776      1.18730252512277
  H   -0.04392806395877      2.01667831438319     -1.96965486987553
  H   0.92608683682218      2.66107635272088      2.15202076800920
  H   4.67262381523596      2.98190184195498     -1.10446452895831
  H   6.93152942506734     -0.73362633179044      0.37776625154725
  H   4.59454357105275     -2.75387302781424      1.47550515466363
