25
Coordinates from ORCA-job 15351optt
  Br  1.25904940066987      0.12836105359470     -1.28820587092103
  C   3.10734846312770      0.11041569269858     -0.76052817291351
  C   3.65829172862882     -1.09764627629705     -0.24609930192737
  N   3.11032604325469     -2.35399775550029     -0.67591294187493
  C   2.99692845525425     -2.68766528848780     -2.00165105065702
  O   3.54512141956283     -2.11621884690216     -2.91294488110714
  C   2.45435536730013     -3.17454454679368      0.28265701532972
  N   1.20703636158747     -3.42235983009817      0.29960712238365
  N   3.28887367734273     -3.67890952587918      1.24615313247369
  C   4.62704326008671     -4.19473874811103      1.00335693132830
  C   5.60259280562321     -3.23339636935903      0.33048309125966
  O   5.60893254956479     -1.97342028067604      0.95599106579520
  C   4.98605356219706     -0.95431325663188      0.27949032899624
  C   5.59350326330479      0.26813837469940      0.18724036119921
  Br  7.33089252363361      0.47503478977359      1.00426193282264
  N   5.08481321275090      1.38782775256812     -0.34252500319747
  C   3.80179270660125      1.28230255141278     -0.76830584792511
  H   2.33972008864741     -3.56096765157999     -2.15492586732535
  H   0.73196411653494     -2.81994102240581     -0.36863277255619
  H   2.76852062824423     -4.17330891319750      1.95407820302229
  H   4.61007168181063     -5.12107123967716      0.41131171984370
  H   5.02988820551086     -4.44205453100007      1.98645829508861
  H   5.41058130920020     -3.13306019300712     -0.73797108374928
  H   6.60398450616558     -3.65950896564616      0.44620485682795
  H   3.32931466339526      2.19404302650299     -1.11559126221644
