23
Coordinates from ORCA-job 15368optt
  Br  3.02759703847705      0.93651646118067      2.23647919871310
  C   3.04433162333920      0.06473161740579      0.58401628568216
  C   2.89919568660021     -1.24673700690433      0.41018372248241
  N   2.60351247789464     -2.18045692531606      1.39745310135552
  C   1.22008673280368     -2.33245218418038      1.80084453084242
  O   0.57614377158602     -1.30685328449374      2.04552242049717
  C   0.63780593912761     -3.64669417445168      1.84070673596389
  N   -0.59464729287257     -3.86996182958317      2.27472232652316
  S   1.49089321358363     -5.14300829004882      1.32823293436842
  C   1.87051708314448     -5.00978231142781     -0.42753673039845
  O   2.30762397892945     -5.96503887983062     -1.02018466693164
  C   1.81125723532967     -3.61507107221055     -0.90201350204095
  C   2.95854486099821     -3.02290564315105     -1.24936926367173
  N   3.16247592810369     -1.68530583931031     -0.94248316291252
  N   4.24223512052039     -1.07161658588017     -1.58969163050307
  C   4.30906668264107      0.17570905755872     -1.37351077900560
  N   3.40271676247386      0.84504580625420     -0.55417192501194
  H   3.05625443881991     -3.07214074324641      1.24979951061817
  H   -0.94797503842404     -2.96724499376572      2.59944211894408
  H   0.99529275025247     -3.00741293283667     -0.53301374270631
  H   3.82414070673569     -3.56554166227070     -1.61738782185819
  H   5.09695133533897      0.74527981194800     -1.85082844022193
  H   3.62697896459667      1.80394160456087     -0.34321122072816
