23
Coordinates from ORCA-job 15367optt
  Br  3.13507914068244     -0.69494920361667      2.42945737395358
  C   2.59402717894425     -0.14748818544599      0.51490950956568
  C   2.50092498618804      1.22261285286217      0.28384727828529
  N   1.92622629567107      2.14449378233172      1.19791664019704
  C   0.62719078605167      2.54005733039126      1.18122267126687
  O   -0.33136098179245      1.89723720985384      0.82835833176909
  C   0.47421973872611      3.99048073125643      1.63585544169883
  N   0.01799097006177      4.39015297126586      2.73913292221889
  S   1.10913487921021      5.18698435831491      0.46446027369055
  C   0.90017018024432      4.30193659582157     -1.04959073664875
  C   1.74467318640206      3.41506911489126     -1.57254299447136
  O   2.96979700242023      3.11139347701243     -1.08479633106109
  C   3.12022928679387      1.73605299728589     -0.85569949663409
  C   3.86473858562532      0.97226807787758     -1.71417290833088
  C   3.96317669178769     -0.43761955934499     -1.46536082251530
  N   4.61110350051223     -1.33443778399401     -2.10179815863489
  O   3.20013744503493     -0.92314923267748     -0.40818700078483
  H   2.56653241040465      2.85637499191938      1.52228515494329
  H   -0.24193205154263      3.59110639610823      3.31963860495560
  H   -0.03390747204111      4.46131161044016     -1.57014767820724
  H   1.46456628832712      2.85701546150687     -2.46407289284289
  H   4.36791197133125      1.40522238291776     -2.56476294319481
  H   5.11136998095691     -0.89312637697822     -2.86795223921858
