25
Coordinates from ORCA-job 15363optt
  Br  0.81766371253418      0.98231849181349      2.38708686862094
  C   2.16418368839665      1.10110559785216      1.01461275147071
  C   3.33786492152816      1.79372565340582      1.35523906156678
  N   3.20432502747470      3.07198414452831      1.97129176172016
  C   2.31914912912104      4.00944938531048      1.53782838671442
  O   2.01092084221172      5.00312786938198      2.16388012613046
  C   1.80065986160738      3.76909011767197      0.11926364089276
  N   2.47903182643852      3.95377089553228     -0.92445379769617
  O   0.51481934249851      3.38350833577168      0.10774669554092
  C   0.03139138001945      2.68295630048697     -1.04646801445689
  C   -0.41655310878825      1.27211345642607     -0.65617867098346
  N   0.62219136774343      0.23243684143251     -0.66144394990517
  C   1.92148987100641      0.61362233031073     -0.26346716964326
  N   2.82011066282088      0.53265288478514     -1.24673303143690
  C   4.13896568178061      0.79287068966103     -1.09629141336571
  N   5.05002691604660      0.62425521088806     -1.98066791342448
  S   4.79383120774159      1.45695256710745      0.45753487766259
  H   3.60585837883686      3.25528078845660      2.88026867007688
  H   3.44389669844874      4.17992619525642     -0.69732262230356
  H   0.80757549868276      2.65771092218610     -1.81131089083273
  H   -0.82447416850096      3.24994694043817     -1.41806818707454
  H   -1.17376115949000      0.94886263223698     -1.37391450306449
  H   -0.89978148635647      1.32439574129846      0.31937930871817
  H   0.72869272431938     -0.13976274762509     -1.59689894918108
  H   4.60292118387805      0.22469875538617     -2.80591303574638
