20
Coordinates from ORCA-job 15377optt
  Br  1.11528130599248     -0.11535213719941      0.09823235059112
  C   2.99779317094716     -0.01105849275167      0.09758429720270
  C   3.66877150869988      1.18635697783769      0.09764829855836
  N   2.95000031712530      2.38088744671592      0.09798767139554
  C   3.61352085251295      3.45949051735908      0.09798235515971
  O   4.93688628346130      3.60116139321771      0.09769529230732
  C   5.78031480042701      2.45985555154481      0.09740081550979
  O   6.96321467086057      2.68720524869710      0.09714851040813
  C   5.09974668217053      1.20578104850478      0.09736220134601
  C   5.83720715822309     -0.01201215044152      0.09707251774175
  C   7.23240581207637     -0.15290075445514      0.09704571981072
  N   8.37646516338788     -0.32357825034847      0.09702157195795
  N   5.08666030315370     -1.19953446826420      0.09685423503173
  N   5.63524708394133     -2.41874083600524      0.09634383768206
  C   4.60369639154938     -3.25374790356783      0.09627962860150
  C   3.37403703188764     -2.58266456975486      0.09659217363741
  C   3.72007189342037     -1.23972135733538      0.09707338611007
  H   3.10752374897751      4.41987674262121      0.09824111572233
  H   4.78969904541294     -4.31626866150192      0.09589673766356
  H   2.37745677577254     -2.98603534487264      0.09653728356223
