22
Coordinates from ORCA-job 15370optt
  Br  1.47992922699044     -1.77190772068819     -0.27039305368277
  C   3.34340386553132     -2.25432902790647      0.20977371367124
  C   3.92528561458005     -1.40513737227249      1.26649102178007
  N   4.49454145796656     -0.20483073506864      0.90070461810390
  C   5.46073437668103     -0.40648098449728     -0.14854777437217
  O   6.36413721260637      0.39902524824893     -0.26944086496293
  C   5.30956247635970     -1.63601788769566     -0.92284648353884
  O   4.05556034624815     -2.29059177995433     -0.94785997063925
  N   6.28893835983304     -2.06460312018422     -1.66852364021318
  C   6.51560807838436     -3.26778348660748     -2.18554816900338
  N   5.96972190395371     -4.46265485293619     -2.02066653356091
  C   5.15314473671416     -4.78252433160426     -1.00636986043287
  N   5.20040422425285     -4.31543341443974      0.19521095224025
  C   4.12571328422158     -4.55875381889659      1.01209637616485
  N   3.87308170928348     -5.64560689873541      1.61640243475613
  N   3.27339271963860     -3.39213744991097      1.22181499767063
  C   3.86908373906376     -2.41392489965855      2.13392342072984
  H   4.85927647989369      0.41453718466820      1.61057717343854
  H   7.31794402762083     -3.25544929296767     -2.92178846076022
  H   4.39173242413478     -5.53158016299249     -1.25618328025642
  H   3.00681820714509     -5.52818709349907      2.13957370081294
  H   4.11798552889623     -2.61062810240128      3.16559968205457
