21
Coordinates from ORCA-job 15372optt
  Br  2.08641863888281     -2.49997054705032     -1.00698788994858
  C   3.50515375390469     -1.43696464077163     -0.41590725133539
  C   4.00048422309879     -1.35112544432774      0.81681374606177
  N   4.95613488879378     -0.32912906389099      1.03209907262909
  C   5.72600759589827      0.23472410415840      0.04834422950467
  O   6.47576291942909      1.16884266453616      0.19347680721329
  C   5.50910048738974     -0.64860601669056     -1.16447175839930
  O   4.13282755759999     -0.76866554749299     -1.43186947448443
  N   6.36704410726598     -1.46433605212845     -1.54084762135487
  C   5.91604842536895     -2.83005433724607     -1.82005328365034
  O   6.00121140292689     -3.35644252412133     -2.90414188115089
  N   5.47758675938450     -3.26956877244629     -0.61000723538125
  C   4.81361851906769     -4.38985304215787     -0.42703164830939
  C   4.07436347410180     -4.59753230230579      0.75269749527992
  C   3.72477541750943     -3.71495094041241      1.77583539793890
  C   3.80417062797313     -2.28881811949762      1.96138392636903
  O   3.75070590762054     -1.77708422879710      3.09279819840681
  H   5.09814540627838     -0.04953141932985      1.99440899788268
  H   4.79207143496784     -5.16910514820712     -1.19358454751850
  H   3.71315266251056     -5.61275701827099      0.89000331904253
  H   3.30621579002710     -4.18007160354940      2.66404140120423
