22
Coordinates from ORCA-job 15386optt
  Br  1.14007526194897      0.06505252829385     -0.16460405201049
  C   2.99639859036322     -0.07616009500587      0.15133681606381
  C   3.62043828987874     -1.31853650689899      0.24505901378570
  N   3.29339854795809     -2.54027432524126     -0.21039840098138
  C   4.44428948032206     -3.21568238075771     -0.40438689533278
  O   4.43747420437730     -4.62027403850103     -0.35988334880176
  C   3.82835131951738     -5.30485414546627     -1.32911485223904
  O   3.31626446922214     -4.87656955578298     -2.31686300778030
  C   5.67589990463019     -2.55627012795870      0.18648600621263
  C   6.88722671070838     -2.06240055259152     -0.64216277339489
  N   7.81006648900196     -2.68296779137822     -1.24406140899818
  N   6.88506362534910     -0.66037408176934     -0.53379308612863
  C   5.70270671706835     -0.24274279210154      0.05414637565493
  O   5.19302215011010      0.96253216088179     -0.14779121461416
  C   3.76554997107760      1.12546137322997      0.11871878587047
  N   3.36032446327465      2.32921858136414      0.19377562057838
  C   5.02915516721494     -1.27030923831100      0.57964279596679
  H   3.88085707013233     -6.37482787626240     -1.08033824570669
  H   6.08183477125733     -3.16887316933218      1.00374056308381
  H   7.61331058942432     -3.68072911766721     -1.22953999823700
  H   7.49239768034024     -0.08064538741561     -1.08808862250961
  H   4.12689452682251      2.96722653867210      0.00111992951840
