27
Coordinates from ORCA-job 15380opt
  Br  0.97668044775277     -0.56106810606490     -2.20126683043574
  C   2.86774556129553     -0.22130944005585     -0.38919572130945
  C   3.64070398687404     -1.35069888813887     -0.27856500154041
  N   3.19804472090240     -2.61275718593226     -0.70400456877371
  C   3.81849873375143     -3.75198330295438     -0.34314362427907
  O   3.45570555784329     -4.87346082215963     -0.64171630829928
  C   5.03094075401696     -3.53100192519264      0.55364179756641
  O   5.73417311520135     -2.32723480583741      0.31090046495911
  C   4.93973245916499     -1.21744048538737      0.22163194831040
  N   5.47696398613403     -0.06916482232761      0.56383086075719
  C   4.71993942561172      1.02176397342946      0.41604897081092
  C   3.40853517837615      1.00712830740024     -0.04607353716716
  C   2.61539481756102      2.27771821839695     -0.16086609093787
  N   2.02416336089348      2.65496947313053      1.12334911019952
  C   1.34476970993336      3.93472785098460      1.03699424604788
  C   0.89554401077751      4.40568916292822      2.34680224595028
  C   0.55118843573555      4.79873438320640      3.42483252979493
  H   2.34437791090546     -2.62554398966615     -1.25910020945739
  H   5.72656733758800     -4.34896983468014      0.38899340850327
  H   4.68495488025431     -3.56243125019798      1.59509197614341
  H   5.19550704988450      1.96591153522782      0.67582090372334
  H   1.80755157117309      2.11422338698882     -0.87750036009228
  H   3.25989040426546      3.08330410526483     -0.55113060487619
  H   2.74060664211881      2.68394355918511      1.84028213130880
  H   0.47604323859947      3.81517980110224      0.38328659244319
  H   1.97067705433398      4.72206973501194      0.58443050412659
  H   0.23509964905090      5.13670136633799      4.38162516652327
