25
Coordinates from ORCA-job 15385optt
  Br  0.98313112689038     -0.19291196777298      0.74876700810628
  C   1.99792176493277      1.20778662786616     -0.07344760685652
  C   3.09044107835764      1.78198951581208      0.60306672034837
  N   2.93777533709914      2.14014779091616      1.98672136327317
  C   1.91907826687058      3.00382217032955      2.34454641580036
  O   1.45078476405447      3.00492549039443      3.46108477987658
  C   1.50239254131234      4.08989261903137      1.32430988960949
  O   0.09860940310664      4.28701470347982      1.27814059009814
  C   -0.60324745337158      3.84023171272836      0.13724721576815
  C   -0.39908453307885      4.64980171925361     -1.15922353467224
  N   0.54130863883256      3.86314750866471     -1.94908973969692
  C   0.66717816553334      2.74112580038060     -1.34109671296012
  O   -0.18308553378528      2.56429978520952     -0.25100504591348
  C   1.73150987441255      1.76852492246875     -1.37460352844863
  C   2.92811247403534      2.07933215143999     -2.09276110502229
  N   4.10863640174281      2.21833781275171     -1.53352417975830
  C   4.11995799925155      2.26078556296846     -0.16104790604415
  H   3.08573766230893      1.42810112603057      2.69073960405305
  H   1.93126699482103      3.92205627647975      0.33903653812074
  H   1.93375056325901      5.01244033042669      1.72323925653751
  H   -1.63986111416048      3.79464942884486      0.46615094836096
  H   0.01114470691207      5.63923332528807     -0.94432279320412
  H   -1.35547392823203      4.78663659757012     -1.67686971542127
  H   2.87644253787718      2.29648240414954     -3.15844755957115
  H   4.95257226101786      2.77714658528805      0.30438909761638
