19
Coordinates from ORCA-job 15381optt
  Br  1.03053275996809      0.05341487929537     -0.03881875888636
  C   2.91368715414455      0.10806340350685     -0.06173777530611
  C   3.58922107427452      1.27272225047207     -0.07058409718747
  N   4.98143272331756      1.27092151906506     -0.07882096978476
  C   5.46961025744726      2.62200958434540     -0.08454191570947
  O   6.64355431138229      2.89785906430967     -0.08859896891691
  C   4.28678844083236      3.52990489724061     -0.08489166783186
  O   4.37316330141183      4.76418131620897     -0.09253730263124
  C   3.10202585889952      2.69279770748549     -0.07571370228125
  O   1.91942171003392      3.02440891411380     -0.07424000891665
  C   5.79025223586528      0.12759129615258     -0.07915879654444
  N   7.06137269366425      0.10634074901879     -0.07617676682257
  C   5.00676064683956     -1.12010151193321     -0.08379387989054
  Br  6.00492757664802     -2.70823099073465     -0.10660179687203
  C   3.64920979024631     -1.14553796822379     -0.07113685547048
  C   2.93852645352423     -2.38457400443494     -0.06870256220479
  C   2.33851754630033     -3.42171117589838     -0.06688559076607
  H   7.42973771787489      1.05359791654796     -0.07247250899871
  H   1.80425774732519     -4.34065784653764     -0.06458607497828
