25
Coordinates from ORCA-job 15390optt
  Br  1.05822837499674     -0.16198392703086     -0.52713839251664
  C   2.96310142262856     -0.13277121558765     -0.29120996156335
  C   3.64452725653527     -1.34655779449434     -0.05070717931631
  N   2.91870911914980     -2.55313864213064      0.04698494175810
  C   3.18871404568915     -3.87420998723046     -0.03922438032544
  O   2.31640104545093     -4.71186840208293      0.15540625814449
  C   4.61032455162406     -4.39918419456679     -0.31898134879024
  O   5.60899556419180     -3.46163265469292     -0.59806318573543
  C   5.80195784053875     -2.50539588775363      0.43871492683665
  C   5.04006664550844     -1.24906468732186      0.16242004041724
  C   5.68751804596496     -0.04336512684276      0.10285635057395
  C   4.99492071564779      1.17754692309566     -0.14769077964181
  C   5.67317587631027      2.42460681298456     -0.20153858706514
  O   6.89464747018353      2.60004419685188     -0.03160267244899
  C   3.58902946135498      1.08066166475610     -0.34033860138959
  C   4.55932374492908     -5.35681741554005     -1.42862677937200
  C   4.53907119436883     -6.14196586374387     -2.33023079058601
  H   1.92850896752764     -2.42377888534979      0.22121093880969
  H   4.86532293851171     -4.96401331725081      0.59151389355501
  H   6.86896033107478     -2.28910839912257      0.48159713992575
  H   5.50071230679348     -2.94941720447480      1.39777140986516
  H   6.76061609650034      0.00566930181080      0.24613591899099
  H   5.02005413639854      3.29488555518515     -0.41576276267002
  H   3.01156439780731      1.97704249205942     -0.52874431452169
  H   4.51054845031317     -6.83318334152681     -3.13675208293435
