26
Coordinates from ORCA-job 15398optt
  Br  1.08821846199425      0.83368050957112      0.03565249742850
  C   2.97035082260360      0.42210423574606      0.04711727272584
  C   3.37016831807598     -0.93522975513140     -0.15155748082555
  N   2.43206229003815     -1.89805909662059     -0.30503248502615
  C   2.41968686595710     -3.35351696174579     -0.43953140237886
  O   1.60550291357363     -3.77925339640147     -1.27060375456028
  C   3.22387914024357     -4.15027316859460      0.45003307846123
  O   3.28051599481705     -5.39399114553160      0.34661906646950
  C   4.11918322734030     -3.47713410682969      1.47630302168999
  C   5.50960974153397     -3.27286492580235      0.86977073547624
  C   5.42859273395715     -2.45181814362060     -0.42347436429872
  C   4.77906988724662     -1.11547381737253     -0.18580808475430
  C   5.59211861295284     -0.01752255644720      0.03242501820822
  C   5.06677240854152      1.25206705447131      0.24889220838002
  N   3.74001228958152      1.44671290260817      0.23418042623111
  C   5.91620333454842      2.38074588393784      0.47960790824386
  C   6.65732269425541      3.30640266741084      0.67342735016954
  H   1.51473047501161     -1.55376394332785     -0.55486078442730
  H   4.18539960200759     -4.14868209850419      2.33361774449084
  H   3.71603452618355     -2.52376379525470      1.82447879260356
  H   5.93591443531958     -4.25316740227095      0.64405762459309
  H   6.17630662125857     -2.76815692080455      1.57611557898702
  H   4.87451394326051     -3.01471612803621     -1.17563839071210
  H   6.43188331782551     -2.28036930150390     -0.81865997399859
  H   6.66760066636573     -0.14767695661828      0.01736786838390
  H   7.30334667550620      4.13172036667314      0.84750052843937
