21
Coordinates from ORCA-job 15393optt
  Br  1.46198745487150      0.48119305502329      0.75136996775045
  C   0.87584412342997     -1.24287158860472      0.29975202379752
  C   1.77919297528220     -2.37083215517302      0.28457965393570
  N   3.06561590343515     -2.19416356989403      0.59333833932974
  C   4.05844985309172     -3.03017512177780      0.40208548385022
  O   4.10776382158430     -4.03037097116297     -0.59726677794255
  C   3.15360716897642     -4.95246498483345     -0.74807368878051
  O   3.24139924229231     -5.77959311587212     -1.61882261830385
  C   2.01669035002228     -4.87710797680626      0.24021981833720
  C   1.16546384197703     -3.65080974401053      0.04396188529252
  N   -0.11144451741530     -3.85345955544643     -0.24382921267855
  C   -0.85895493819758     -2.76363607883571     -0.31209048883958
  C   -0.43060029991015     -1.48277269135114     -0.02558184530275
  O   -1.49278898649882     -0.61602485378342     -0.10889032665983
  C   -2.61562461813863     -1.34118668578460     -0.45012634309290
  O   -3.69933348624667     -0.84161338187918     -0.60300749104672
  N   -2.23459762515215     -2.64206897169194     -0.56561397372944
  H   5.06858440990295     -2.71425579768553      0.61383501625718
  H   2.46211874336377     -4.84113940353970      1.24131866489920
  H   1.40059746748406     -5.76331070349562      0.12684637040607
  H   -2.87097088415438     -3.37233570339507     -0.82800445747911
