21
Coordinates from ORCA-job 15403optt
  Br  0.78956201263371     -0.62988659557486     -0.11347709522167
  C   2.80399511006222     -0.06974201078616     -0.06489175229794
  C   3.62759987112110     -1.18193998599648     -0.16345642827146
  N   3.24004557362757     -2.52237977773639     -0.26844670197089
  C   4.36526524763405     -3.30523124693490     -0.16903168480006
  O   4.38291427028881     -4.65557664392650     -0.42677204784568
  C   3.32664510149419     -5.42188664377533     -0.15276640035850
  O   2.28265777520111     -5.05909367554830      0.31069257911631
  C   5.48803094020048     -2.52049936130355     -0.12858911083436
  C   6.91429402119461     -2.96347036707095     -0.21561760717595
  C   7.30709107166451     -3.94086451686307      0.80400911878631
  N   7.64912321400055     -4.71088464579563      1.58158901291700
  C   5.04666385270148     -1.18311023541107     -0.12123158978093
  N   5.88322996651874     -0.09125707713754     -0.02233254454475
  C   5.88786533477548      1.10631071125049      0.00675828967662
  O   6.06901184439643      2.26240503327876      0.03820100106052
  O   3.04210453571505      1.11534559282982      0.04372771761539
  H   2.31783022109063     -2.83247838240277      0.00030014992280
  H   3.56451789783956     -6.45653259605516     -0.42233258288587
  H   7.55769941531948     -2.08809865678788     -0.10769692924064
  H   7.13285272252014     -3.41012891825246     -1.18963539386624
