22
Coordinates from ORCA-job 15400optt
  Br  1.17801909365666     -0.07788930444739     -0.92698609586173
  C   3.01122242725212     -0.03407303473580     -0.41875541194272
  C   3.72329506024568     -1.23723965708118     -0.31600883022875
  N   3.16617738662325     -2.46389329113251     -0.50976174359791
  C   3.66233057445628     -3.66987283941249      0.08983137605828
  O   2.85467627970089     -4.58885223866148      0.23577533592592
  C   5.05030287234672     -3.68274253117809      0.45465995390464
  O   5.63414869518229     -4.61535004125517      1.02735336369161
  C   5.89422513673094     -2.44524369742555     -0.04403014217786
  C   7.13730242721280     -2.35535017364378      0.72549659938642
  C   8.15510078489195     -2.26743736985069      1.34796279019724
  C   6.24919841683934     -2.68643219844644     -1.46520779741204
  N   6.48091385004730     -2.86735257574615     -2.57473101795161
  C   5.08898437714437     -1.14840073503462      0.01708425745267
  C   5.66692736029192      0.07759746119733      0.29253629432275
  C   4.92727846895941      1.25118929911554      0.22230774824975
  C   3.59348519167721      1.19086258006344     -0.15269520327655
  H   2.17256535457959     -2.51410064566252     -0.68086196376530
  H   9.05338830090023     -2.22279684716103      1.91372155040390
  H   6.71679231951149      0.10753786040060      0.55386072526100
  H   5.38743129433912      2.20555214370480      0.43916300244966
  H   2.99623432741033      2.08928783639321     -0.23071479108935
