22
Coordinates from ORCA-job 15407optt
  Br  1.49577810274549     -1.50235294264535      0.40780475783387
  C   3.38982003135845     -1.30031697326855      0.13808670126208
  C   4.27486967378861     -1.68852440261441      1.15098164070137
  N   5.59527194706563     -1.21607251059973      0.94062394314298
  C   6.12245549206286     -0.98355449847500     -0.30647701057473
  O   7.32383981117368     -0.85471506797519     -0.49579947734540
  C   5.08064105065088     -0.93206924361270     -1.33224987220070
  O   5.45640976112364     -1.59606288717800     -2.51992726851698
  C   5.64609812086414     -2.90897657262375     -2.28687856588826
  C   5.15114639965950     -3.54738971769903     -1.21468896665419
  C   5.56645760544152     -4.85403547893673     -0.76125364993150
  O   6.25090076550920     -5.65728729660093     -1.36669659963019
  N   5.14760316250805     -5.19931528784007      0.53436757035331
  C   4.24619044695158     -4.72176415848240      1.51140225456033
  N   3.62475158231100     -5.53605249996222      2.26092763323908
  S   4.01231913911293     -3.01648975055694      2.21872152552999
  N   3.75888610267128     -0.91574482496037     -1.05014384838872
  H   6.26935582183356     -1.34322031640195      1.68148399841384
  H   6.27629105987075     -3.39310836694876     -3.02379506665719
  H   4.47661396119043     -3.04996528015707     -0.55013059474429
  H   5.41533415613087     -6.15961837450583      0.71501508376045
  H   3.80796580597567     -6.50636354795489      2.00262581173487
