25
Coordinates from ORCA-job 15413optt
  Br  2.30645454569733     -0.17620997183628      2.65157490057348
  C   2.77219016272711      0.45188830992467      0.88863465443117
  C   3.49397251942230      1.60998533853456      0.75764210934017
  N   3.53071853963862      2.58795629818705      1.79004685611230
  C   2.65645129264468      3.62604134317666      1.85831033412901
  O   2.70682058651772      4.45881654346899      2.74612686149450
  C   1.64246133859935      3.81177149202845      0.71716724436091
  O   0.90467626680277      2.65514627736254      0.39882113378526
  C   0.20094269174039      2.73924562084402     -0.82651309826175
  C   -0.15435801834358      1.34756404244591     -1.34185164104636
  O   0.88902641557603      0.69056202586928     -2.06570882020293
  C   2.05556731211046      0.73489585934498     -1.32130067823720
  C   2.15536129625252     -0.14254041801848     -0.20555754402826
  N   2.86622250741134      1.70450529584142     -1.58312187832911
  C   3.77842703824313      2.01690191384919     -0.59761280495059
  C   4.75716911425539      2.99351791046734     -0.86114901097793
  N   5.56293408448529      3.80947368847742     -1.03618852526585
  H   4.18743130225076      2.53467915986327      2.55459087960764
  H   2.20970723339610      4.15125348348706     -0.15975529734432
  H   0.98268503806199      4.61985328045454      1.04697944520249
  H   0.80944519994264      3.25184586457501     -1.57894043499879
  H   -0.73025240765948      3.30296681638296     -0.67574090681838
  H   -0.98429983168447      1.43086586518105     -2.04429005879506
  H   -0.46265277293222      0.72955375368604     -0.49096404913972
  H   1.55089854484378     -1.03253979359768     -0.13119967064070
