22
Coordinates from ORCA-job 15417optt
  Br  1.10810191875167      0.16981327938679      0.37538840200063
  C   2.96981738360162     -0.03532921333277      0.19753461079658
  C   3.56046965767233     -1.23448787731970      0.00457399312868
  N   2.90783868932032     -2.45128054310894     -0.12575708988476
  C   3.28638530170730     -3.65065100186801      0.63542823053404
  O   2.38352958246515     -4.17127738359410      1.29194800853694
  C   4.62801572783782     -4.13531602269543      0.47476086314207
  O   5.10098740044913     -5.10306648245294      1.12006431440222
  C   5.49538508438636     -3.51344885333327     -0.61512600831026
  N   5.86678366556965     -2.11553613315967     -0.38106444381487
  C   7.12487350925611     -1.57158592892351     -0.46240279197359
  C   7.05262837569997     -0.21773995730094     -0.26644557368834
  C   5.68016751071707      0.07465235924608     -0.05739638192886
  C   4.98686993258783     -1.12681030921982     -0.13062998567736
  C   4.98252574922024      1.31245886960271      0.13728166863728
  O   5.42924677603131      2.42701857035311      0.20701438576072
  O   3.60686686611130      1.16271802252435      0.23382569392603
  H   1.90470507077123     -2.35931420887443     -0.02390135304704
  H   5.00305265949852     -3.56055796007794     -1.59073806695785
  H   6.41596942252799     -4.09168918112778     -0.64615306535776
  H   7.97181191536403     -2.21027730113900     -0.65026385867742
  H   7.86896780045299      0.48370725641523     -0.26594155154707
