21
Coordinates from ORCA-job 15414opt
  Br  2.75928190475405     -0.23229912828064      2.79582258198826
  C   4.77833299276465     -0.81664198646117      1.35947089850757
  C   6.08010955170553     -0.47684723397191      1.21323923060343
  N   6.65165480829440     -0.29865684149123     -0.04814158511595
  C   6.26837089569052     -0.93058769605030     -1.06259534839068
  O   7.00804019831952     -1.05691210972281     -2.20485590450630
  C   8.35222685525392     -1.46917719177816     -2.16114450655286
  O   8.86570283417666     -1.68955549726935     -3.21040173094405
  C   9.05359000272143     -1.40755997863171     -0.85650840791174
  C   8.53663466638645     -1.78783169629334      0.30492427425669
  O   9.02456001804386     -1.31244874008207      1.48142705555063
  C   8.13835493028276     -0.72954773778623      2.39470765280395
  N   6.94290802941767     -0.36782064671777      2.31392723870110
  S   4.87914839314617     -2.03919316040888     -0.96003550550256
  O   5.42909470528672     -3.28013755912661     -0.48552834858703
  O   4.04275389035111     -2.05917593860953     -2.12089646072207
  N   4.10621974071344     -1.21670838870570      0.22559388635585
  H   9.92228829266524     -0.76129194470747     -0.86730161438232
  H   7.68430799618564     -2.45539795230107      0.39335131137551
  H   8.68792181786951     -0.60496374870658      3.32075957867028
  H   3.09549747597010     -1.30724482289731      0.27918570380228
