23
Coordinates from ORCA-job 15410optt
  Br  1.49862303226681     -1.51886476110092      0.01473872365736
  C   3.30391939016122     -0.93507518127038     -0.08517643249900
  C   4.16374022906869     -1.04495027267364      0.98424985217032
  N   5.32413078452834     -0.30510590750119      0.79820957729160
  C   5.89812688072019     -0.00520913795534     -0.44571658786020
  O   6.92645997046033      0.62414880839937     -0.54836879466588
  C   5.09915817182897     -0.66455132058106     -1.50129200228229
  O   5.77047431302232     -1.31542738242103     -2.48868415086386
  C   5.71810782467128     -2.73439170948883     -2.29229651678099
  C   6.05213156230990     -3.22910174345597     -1.09120711898174
  N   5.94860715507076     -4.49010259411980     -0.53162192567684
  C   5.36112205440527     -4.46276132295922      0.69310584813986
  C   5.62722023437239     -5.49014133545026      1.65162323379493
  O   5.19801206815478     -5.53146257411130      2.80350436342801
  C   4.45643374502522     -3.33817398277969      0.89995743341911
  C   4.37196194949433     -2.28998867696947      1.76222443845255
  N   3.84645707351301     -0.87363232379417     -1.31343032762650
  H   6.00987915414933     -0.32233484310250      1.54285830648061
  H   5.28503653888833     -3.26718835898681     -3.12429848491856
  H   6.42116850984983     -2.46970952295112     -0.39624280556966
  H   6.28943198923185     -6.28814502148321      1.26512863550449
  H   3.94611935422029     -3.15909307839632     -0.03956034882845
  H   4.90067801458648     -2.25873775684711      2.70729508421514
