23
Coordinates from ORCA-job 15415optt
  Br  1.09416927822189     -0.43732580898369     -1.73414542546536
  C   2.26507790559973      0.35373581827272     -0.44528889200256
  C   3.07177186847798      1.37098656038112     -0.79201742374724
  N   3.01226765480743      1.94360449581550     -2.08554717708804
  C   2.43496183041491      3.04201100625123     -2.18795800611671
  O   1.86590104640143      3.70220768261466     -1.09504133066292
  C   0.58169217024399      3.38283844740162     -0.80083862389207
  O   -0.16522249901236      2.89475276813584     -1.60184365620529
  C   0.22696157720392      3.67762308337340      0.63251540372756
  C   0.56979793603628      2.46644033523173      1.51102597804310
  O   1.95632616575464      2.44334776107324      1.64613536339483
  C   2.69165598883313      1.27279638511812      1.94826643352154
  S   2.01990176106140     -0.21079565776674      1.21582057687031
  C   4.02986089168066      1.48460877424096      1.48724637580290
  C   4.17645340769901      1.87855450621024      0.11749232154588
  N   5.17608023484756      2.43797071527610     -0.48822485167502
  H   2.36260881311885      3.58514556965282     -3.12285392229474
  H   0.78297065979092      4.54228672328654      0.99339119219590
  H   -0.84479727786417      3.86964561003462      0.67116643914952
  H   0.18336472856155      1.55284407797529      1.04843797303231
  H   0.08672113494163      2.57915881788933      2.49109849471354
  H   4.86685861534886      0.99639401266869      1.97047149590731
  H   5.84361610783074      2.73116831584660      0.22469126124526
