27
Coordinates from ORCA-job 15421optt
  Br  1.53472548876864     -1.98986982833767     -0.93470237344290
  C   3.39978848620770     -1.64870572222650     -0.50034545527642
  C   4.34795062510739     -1.89038627909031     -1.48906518613064
  N   5.63386777780942     -1.41761624832190     -1.17297056446935
  C   6.13079646303331     -1.43461577130780      0.13335376625025
  O   7.34385549132630     -1.58815528467387      0.31596837893503
  C   5.11966709669140     -1.34602395720382      1.14034899222514
  O   5.49971792185902     -2.04900125213511      2.32547085647084
  C   5.69630829031967     -3.35695914442638      2.03325406503789
  N   5.14307513849974     -3.89586439532170      1.04778380355374
  C   5.50623952285803     -5.12716115072935      0.41737087973709
  C   5.58798485923911     -4.81639946650377     -1.08968086514109
  C   4.23860213433244     -4.29823813412095     -1.65507185329017
  N   4.31481099864234     -3.02052335758200     -2.37123014295740
  C   3.59722112385150     -5.35107350007915     -2.50623073412181
  O   3.02390316443761     -5.16254547524236     -3.54517716139627
  C   3.74773101087505     -1.32863801292024      0.78799304173676
  H   6.34800739132641     -1.58429348908864     -1.86806634477653
  H   6.40184490219290     -3.82633485711615      2.72722851786506
  H   4.72668888292641     -5.87973006485312      0.58866576152578
  H   6.45878275803644     -5.54411346724386      0.77237369187646
  H   5.92653276442204     -5.70173608300213     -1.63889578620917
  H   6.33495429814849     -4.03556207881695     -1.23380276789214
  H   3.55911646934793     -4.20448628660297     -0.78911327826175
  H   3.54970561201305     -2.97241000096031     -3.03421821032288
  H   3.66851941243671     -6.37770721872049     -2.08576062776739
  H   2.99060191529078     -1.19584947337236      1.55251959624186
