22
Coordinates from ORCA-job 15420optt
  Br  1.38211610365522     -1.68467467501857      0.92277343375858
  C   2.85175484506885     -0.53500481201270      0.65694633011327
  C   2.72165262221004      0.76140074877526      0.34665575499366
  N   1.51581347866034      1.45396087023582      0.26114140954476
  C   1.33683150443389      2.07135252411804     -0.82228275683587
  O   0.50248305841834      3.10422656237177     -0.90649115977534
  C   0.62822415716552      4.04560733352708      0.15513716469678
  O   -0.37393449123022      4.66513457653295      0.43827498932133
  C   1.94726494666200      4.33561597540549      0.66838739242159
  N   3.17905528289152      3.92817541769619      0.44777731465458
  C   4.01308506397447      2.94587263566201      0.10353590914112
  C   5.32703530960547      3.47292104226953     -0.22127130200542
  C   6.40388483783176      3.91766921159913     -0.51982709393390
  C   3.93646417368317      1.53577506519481      0.11688640617811
  C   5.08958876894485      0.70174585733740     -0.11750227748043
  N   5.18894338091432     -0.55508704480067      0.14827495296730
  N   4.10799571942379     -1.12998218435905      0.80874432236672
  H   1.86909163224075      1.85753179539539     -1.75295316852787
  H   1.87226650761588      5.22642068709684      1.28933293495648
  H   7.35141400304193      4.32374290416237     -0.77628011498756
  H   5.97118130239289      1.13482377527987     -0.57443403064989
  H   4.11278779239515     -2.13022826646902      0.68717358908199
