20
Coordinates from ORCA-job 15423optt
  Br  1.11368605504177     -0.42940254376670      0.74158607068682
  C   2.93062601255304     -0.10669054899618      0.34876919339647
  C   3.47146595700245      1.20398844744406      0.34550289153164
  N   2.89427427516415      2.42708770098348      0.57730097355287
  C   3.87572000763788      3.27352113992532      0.42066196673670
  O   3.67303311340894      4.63278587443856      0.64849140152540
  C   3.89194144094664      5.45806476349398     -0.36502282739778
  O   4.04150048991304      5.20856420528687     -1.51763364707311
  C   3.87347633691451      6.85592411992259      0.12759482656932
  N   3.83823131958268      7.95467190164780      0.44636779152886
  C   5.13781622815534      2.71167932847578      0.09445589150239
  C   6.38507528458494      3.37643754817464     -0.07732524308478
  O   6.58452497593461      4.57914574689064      0.00511353330115
  C   4.83231086432897      1.32658726849559      0.04661576962362
  N   5.59038260716696      0.21327617179209     -0.19843119344117
  N   5.07166598203191     -1.05559018205923     -0.25721246321393
  C   3.78174112924820     -1.15441523103081      0.03116676936954
  H   7.24274955584337      2.70636528118387     -0.30019938771311
  H   6.54155478802341      0.28161959043061     -0.51038881918842
  H   3.39722357651704     -2.16662058273302     -0.00341349821248
