22
Coordinates from ORCA-job 15429optt
  Br  1.75181563879863      1.03672261206947     -3.21268214860857
  C   3.24104417656615      0.85690943394417     -2.07697256241260
  C   3.61988228610354      1.76071806728130     -1.16183324942701
  N   2.81240708961676      2.73887454660594     -0.62231452951395
  C   1.75614476907150      2.21689704254071      0.00476310367643
  O   1.56996968665555      0.81458572477152      0.02951826513097
  C   1.81799472128691      0.22454822208196      1.26353334774954
  O   1.66293053381405     -1.19899412992777      1.14602637632294
  C   2.45429424070165     -2.06770424577234      0.51918606985625
  N   3.44896055388385     -1.97107979857738     -0.25830500610873
  C   3.95718524933742     -0.75076017173482     -0.64518039862612
  O   3.65087382766375     -0.45607885647042     -1.94424577299748
  N   4.64676374915037      0.01204261061956      0.09508001744028
  C   4.83428745987722      1.32464008261851     -0.40281177438175
  N   5.82559929457727      2.05955743485982     -0.12913093549543
  C   0.79671680926846      2.98654675554819      0.70337049550248
  O   -0.15954767062554      2.52149127766233      1.36239654586789
  H   1.05632026057459      0.51525281410821      1.98506922038025
  H   2.82735210701791      0.44486410083182      1.61642237024447
  H   2.10282133952315     -3.07044204259320      0.74986927726198
  H   6.46756541486555      1.53322981139191      0.46512983312487
  H   0.97361846227120      4.07117870814052      0.63611145501331
