25
Coordinates from ORCA-job 15424optt
  Br  2.25663179215000     -1.02387506737422     -2.16811462548187
  C   2.53361926266254      0.23611866651663     -0.09209600813376
  C   2.01406950684914      1.50449722706220     -0.03250791237746
  N   0.69176472234599      1.85621162024596     -0.31690613728498
  C   -0.10707984209691      1.23336844646447     -1.05309210707194
  O   -1.35609796680802      1.75174191320744     -1.28244154516561
  C   -1.67872166817047      2.89496829187634     -0.55143567091544
  O   -0.87212410139332      4.00473258009542     -0.89531397035335
  C   0.05210201022799      4.40814336239404      0.03948371575946
  N   -0.23001191252331      4.81823083409722      1.19338210220545
  C   1.47864362557853      4.42085651104626     -0.47744695666315
  N   2.43710804521049      3.85534332130322      0.44908140969447
  C   2.86946365248234      2.54966477842475      0.43247868330128
  C   4.13789090976616      2.24619210539668      0.87743720606895
  C   4.62484624704504      0.91485610235689      0.88980542117156
  O   5.69250250901200      0.50711014974557      1.28322131376068
  O   3.74147151126051     -0.04500800451322      0.35602420969249
  H   0.05593330353073      0.30729004637621     -1.59602766093800
  H   -1.57374727403885      2.69739985990534      0.51886791564815
  H   -2.70574257504381      3.12991327643511     -0.82101781535973
  H   -1.23201875250208      4.76496093152535      1.37049201032452
  H   1.75895974324665      5.46327380449921     -0.64612694545212
  H   1.50547284368685      3.90537860990337     -1.43575642664455
  H   3.09667818588875      4.50560469163548      0.83851826936242
  H   4.82038622163300      3.01602594137415      1.20849152485256
