22
Coordinates from ORCA-job 15438optt
  Br  1.02530073139461     -0.47014026793985     -0.38459405822351
  C   2.87874320359093     -0.26563582120890     -0.07201751320230
  C   3.67884754947855     -1.37636867277966      0.04325924021586
  N   3.21483755249804     -2.66224039966761     -0.05958980791685
  C   3.99491379655603     -3.76220658104475      0.06018574366002
  O   3.31065405347534     -4.86357150115958     -0.07772938687980
  C   3.86726244273561     -6.19454972504702     -0.00010237236448
  O   5.06273864141223     -6.34820028326132      0.22160289718768
  C   2.84337066965954     -7.16505871020351     -0.21023140579054
  O   1.64021019546882     -6.94283476872296     -0.43342219664623
  C   5.36476026754495     -3.56296616703257      0.30346790191050
  N   5.85864126713545     -2.33630516813427      0.40399256052234
  C   5.08648139990166     -1.26385259056920      0.28455177849619
  C   5.63302051499892      0.04973382110639      0.39412917075585
  C   4.84914077649214      1.14240156608477      0.28032679867472
  C   3.40172276124875      1.07534943857256      0.04155758639790
  O   2.71550288945450      2.09371268246430     -0.04783046476444
  H   2.22711034099640     -2.81428559218941     -0.23685080629407
  H   3.24553336644651     -8.18937538014079     -0.15221045020043
  H   6.01790249095006     -4.41036635449419      0.40635556746281
  H   6.69842773300661      0.12305089931174      0.57425814721614
  H   5.25487735555430      2.14270957605586      0.36489106978262
