24
Coordinates from ORCA-job 15434optt
  Br  1.00391304021215      0.14008429104748     -0.31876383274200
  C   2.90076540132477      0.16259873513182     -0.16837689062368
  C   3.56592664711581      1.37791424783439     -0.50557973273400
  N   2.91439456035878      2.45371293688032     -0.93036755669398
  C   3.45076198606562      3.67582839982718     -0.87072058310845
  O   3.98948559522834      4.14609558838066      0.38540257079725
  C   5.22822943396152      3.99673971947595      0.80850542261556
  O   5.60310587222765      4.53399932724678      1.82205118043534
  C   6.24539885479206      3.18614990601791      0.00947941496307
  O   5.77243073700332      2.26158797864788     -0.92804493074488
  C   4.98674578686215      1.24731012580621     -0.42223720551324
  C   5.57632873022012      0.08400859517968      0.00139524875773
  N   4.90980810635758     -1.01636409502526      0.36750524156333
  C   3.57521130353427     -0.96273655082764      0.26530469792278
  C   2.85275432220136     -2.21713788649264      0.66301444573089
  C   2.19580488910311     -2.17608513056615      2.01988898216178
  O   2.31132068898809     -1.30849875649725      2.83654192784754
  H   2.86821269718465      4.49397687767161     -1.27520525574658
  H   6.88118925965403      2.70335650219698      0.75728923606562
  H   6.85195339739346      3.90879475271077     -0.54068838758303
  H   6.66191758374275      0.03274480764068      0.01940065908925
  H   3.58005224176440     -3.03437341959995      0.70055663439724
  H   2.08195287994028     -2.49946886560640     -0.05891653593814
  H   1.57533598476343     -3.07023808708109      2.24656524908059
