27
Coordinates from ORCA-job 15431optt
  Br  1.45418130707164     -0.16085091695045      0.70544386201834
  C   3.19987945531853      0.39108103272223      0.24752902200984
  C   3.46607843357530      1.76226738124631      0.01963443992583
  N   2.45895995079508      2.77030357612324      0.08230028902821
  C   2.28317992351232      3.56680328177884      1.17101576087827
  O   2.45519195698072      3.25041825696458      2.32448343635287
  C   1.94481581224256      5.01094020669807      0.79022445018249
  O   3.04428582839096      5.57938858549520      0.06602102840552
  C   4.22017075056938      5.57880963556618      0.79610418682596
  N   4.51068851691166      6.48387898273947      1.64123393919244
  N   5.03049408914326      4.52041082525073      0.55286500116858
  C   5.04983559798718      3.63459855846711     -0.60919474100975
  C   4.76466167798817      2.18576500076210     -0.31681975068960
  C   5.76123111473903      1.25489778667718     -0.43385090257144
  N   5.46984657402975     -0.10781034162561     -0.28143802368548
  C   4.20764155822649     -0.60136782606505      0.14458058668289
  N   4.03703905966036     -1.86709064160113      0.38542259831342
  H   2.24093189101324      3.22358940622161     -0.79521926939731
  H   1.75251981862158      5.57684105156532      1.70248328967202
  H   1.08622230742206      5.06979980951044      0.12092637390331
  H   3.72892862790054      7.12465626911186      1.73428336690128
  H   5.80560361209005      4.45100945342736      1.19212479394187
  H   6.03698244193892      3.70734890623677     -1.07404864569544
  H   4.33283605938721      4.03995550401685     -1.32304678304993
  H   6.77003382639237      1.50033412981462     -0.73495138416384
  H   6.23638895276833     -0.71702168497536     -0.04702752031729
  H   4.90037085532322     -2.37295622917851      0.19892059517692
