23
Coordinates from ORCA-job 15437optt
  Br  0.69885529113139      0.59689636395525      2.07703088523677
  C   1.76893361412823      0.87474345560540      0.52133556780747
  C   2.87957575658892      1.67625378079311      0.56849888132406
  N   2.95831249171707      2.72808048350630      1.51362418592348
  C   2.18150882662687      3.84883663851945      1.48895752015101
  O   2.37839384198228      4.77074762702594      2.25711492583415
  C   1.14942834944569      4.04061684548592      0.36503590022373
  O   0.15274073539398      3.03415034574378      0.28374296165582
  C   -0.12871295872786      2.53495180005285     -0.94681940121865
  O   0.15899423583553      3.11594687303689     -1.95670543890211
  C   -0.78415588083543      1.17473938135343     -0.89013059119150
  C   0.23901719557151      0.07456044618966     -1.30964805310139
  O   -0.08341420611863     -0.71229329387236     -2.19731160187835
  C   1.53884053129344      0.17653055492038     -0.70598471469924
  N   2.66880092904182     -0.18805882694133     -1.39707244890050
  C   3.75856072876347      0.47631542615174     -1.12361482914201
  N   3.89706662207876      1.53037683547053     -0.28741773621751
  H   3.79626758108825      2.81625541805248      2.07139773296418
  H   1.69068542788371      4.09509570384355     -0.58276747564121
  H   0.68028014038871      5.00153582931389      0.56538202962729
  H   -1.56558053371769      1.13611259893955     -1.64497445823173
  H   -1.20332395879855      0.99643885981650      0.09900315647746
  H   4.65392523923850      0.19016685303705     -1.66867699810123
