21
Coordinates from ORCA-job 15433optt
  Br  1.47761800901984     -0.14528318241613     -1.56038504810975
  C   3.08774416747464     -0.10544008549719     -0.53150301817353
  C   3.61858874656322     -1.31899043734240     -0.02704226695563
  N   2.87208276287882     -2.51632128985702      0.18168763763724
  C   1.63160294930781     -2.54800571837311      0.82389316837041
  O   1.09199841125181     -1.59271579864399      1.30831657866599
  C   3.52095600131348     -3.72783894916747     -0.03132940667752
  O   2.98702076995770     -4.81169574307988      0.00582776541014
  C   5.01198187365513     -3.55141960747859     -0.25476342937019
  O   5.54801112224161     -2.55213504408589      0.58680910127507
  C   4.97633198091194     -1.32497025675289      0.35461471803560
  C   5.69560518603811     -0.17142417524483      0.45942256644310
  Br  7.56441231136556     -0.25976587734258      0.77997295282649
  C   5.07351525676873      1.09300541609667      0.17389162479352
  C   3.78474260879362      1.06074977446144     -0.43903987366705
  C   5.71696791574476      2.32050776642093      0.39828346289318
  N   6.23271639183763      3.34851351417373      0.54676058783014
  H   1.21639021949353     -3.56185391194714      0.83678861225518
  H   5.19130640633419     -3.30470768472026     -1.30816685872018
  H   5.50097728725684     -4.48917457963957     -0.00631001439078
  H   3.38242962179092      1.96996587043620     -0.86572886037144
