21
Coordinates from ORCA-job 15449optt
  Br  1.15835828998847      0.16194330119912      0.02579412367563
  C   3.04520250741240      0.10790061162396      0.01280266911742
  C   3.74441411894264      1.29252671354656      0.00905931868855
  N   3.10833420968939      2.49341266516822      0.01089227657898
  C   3.77654091823627      3.56224015263844      0.00591317188171
  O   5.14789447033529      3.63324993346336     -0.00103009559280
  C   5.89053440102473      2.47361409881253     -0.00193248465967
  O   7.08405732747552      2.62520736961030     -0.00643565728408
  N   5.20697263843492      1.29117081381641      0.00210873100347
  C   5.95697891027136      0.01461106147866      0.00038209558760
  N   7.23735895449528     -0.10013824656115     -0.00327171270873
  C   5.11816974556082     -1.11227594834956      0.00267357921088
  C   3.72787386880581     -1.10687739788253      0.00855681499155
  C   3.26568553719892     -2.49088362134741      0.00800937303611
  O   2.16241536964388     -2.96890379245110      0.01083988650760
  O   4.37775671905938     -3.29844442560146      0.00275626107896
  C   5.58410546189314     -2.52600183392315      0.00023702621497
  H   3.32637113329349      4.54461841316104      0.00636586604153
  H   7.70381075182182      0.79626082351761     -0.00498837605359
  H   6.17142068227513     -2.78446834036442     -0.88576438075755
  H   6.17574398414131     -2.78576235155544      0.88303151344146
