22
Coordinates from ORCA-job 15446optt
  Br  1.34683391804037     -0.79984836634720      0.90205822521601
  C   3.21325307798998     -0.87111602562632      0.43711232473576
  C   3.62174091974502     -1.08522238745098     -0.91613585575288
  N   4.92794739805586     -0.51080292418406     -1.08292610271345
  C   5.93311174269126     -0.82718525407712     -0.16272098320234
  O   7.12354155297204     -0.74405456896936     -0.43947728545727
  C   5.34906592898193     -1.21905681125558      1.09825174758228
  O   6.05583207465752     -2.11198729188287      1.91986685645424
  C   5.62772543310839     -3.38442296299744      1.63627709385720
  O   4.94055024677385     -4.03267409119127      2.35399865380232
  S   6.30208020983324     -3.98261493847088      0.07622926469129
  C   5.09513244108392     -5.24833727795510     -0.34690049481995
  N   5.52469607428011     -6.44221458544156     -0.41853537414447
  N   3.82247415787816     -4.82579543545131     -0.69750881827198
  C   3.32413756721379     -3.51056552717284     -0.47467633660680
  C   3.62746441512082     -2.49788360089746     -1.30236551192856
  N   4.05896376595814     -1.03804861436425      1.39916099522583
  H   5.28223995853747     -0.39138417802463     -2.02158792263079
  H   4.79709197124593     -7.06270897412634     -0.77990273443021
  H   3.14813012581725     -5.57797545290860     -0.66447673309495
  H   2.83438301171332     -3.34504021023134      0.47865047826441
  H   4.17460400830153     -2.74606052097344     -2.20939148677568
