19
Coordinates from ORCA-job 15442optt
  Br  1.19671331983331     -0.87546297093705      2.64006184480631
  C   2.69692969603169     -0.49417961863704      1.55960407659251
  C   2.91213789989289      0.72831731352286      1.05323189991084
  N   1.97880517250356      1.78954650961283      1.27422523627795
  C   1.53421404403802      2.28378684587148      0.02302766871145
  O   0.80295234657857      1.67574004447270     -0.70010646137676
  C   2.25284985559960      3.57947303558223     -0.37595818863408
  O   1.69415305917590      4.49370794837424     -0.90578555828952
  C   3.77490792413655      3.53076437352960     -0.06882276077996
  O   4.33611619308119      4.60784924465913      0.07875343663330
  N   4.39630797721977      2.34270844133882     -0.11275698376519
  C   4.06217500419408      1.08525284931434      0.19918956454214
  C   4.85843145055827      0.04066270003754     -0.29815391044386
  C   4.75500110828543     -1.29059169755455      0.03969150759332
  S   3.71496778054152     -1.88950960433368      1.33773214483983
  C   5.51894425696300     -2.28924505803905     -0.59591784027336
  N   6.13759757402676     -3.12861514236187     -1.09408297202409
  H   2.44945306485390      2.53002608468662      1.78970287375724
  H   5.60434227248593      0.31676870086083     -1.03363557807808
