19
Coordinates from ORCA-job 15441optt
  Br  1.37219345301455     -0.11278507613225      0.52753844930627
  C   3.20092481840979     -0.47022368381925      0.43655221675620
  C   3.74042609229722     -1.62796754877038     -0.00170846354563
  N   3.24633434844180     -2.79299545505539     -0.47049485248511
  C   4.35263894334044     -3.49605423753315     -0.67043682147372
  O   4.30356249894188     -4.71234649829568     -1.13132001788790
  C   5.49985315429376     -5.52411216608782     -1.17644813033829
  O   5.89593518524197     -5.80866958527405     -2.26606001271153
  C   5.99400379039854     -6.00150028745708      0.11889800742785
  O   6.92627101761226     -6.85272162099267      0.13026538063527
  C   5.45110296918995     -5.54601413928794      1.39578999406821
  O   4.58987635336793     -4.70915684269483      1.63607351662820
  N   5.56927152484894     -2.86247844441628     -0.42209997629733
  C   5.18184121217724     -1.70144157845971      0.01686978402912
  C   5.89659391320502     -0.56150486623826      0.47192462589545
  N   5.31716908175919      0.52066470292396      0.87666730021290
  O   3.94774385156654      0.55669836336291      0.86067700767501
  H   5.95720253770186     -6.07974290423098      2.22486192230245
  H   6.97805525419101     -0.52964813154105      0.51245006980255
