21
Coordinates from ORCA-job 15452optt
  Br  1.07175115868674     -0.00434676207767     -0.05401274144500
  C   2.96372899376406      0.05903554229050     -0.05458264846905
  C   3.64846221178725      1.26662415515574     -0.05497161157081
  N   3.04354456799901      2.47974463179832     -0.05505975089399
  C   3.65121754451600      3.77659949609340     -0.05536310302246
  O   2.88788776742689      4.75340392720157     -0.05542174800705
  C   5.08176822057109      3.77482050016917     -0.05565670978338
  O   5.83561549424943      4.75612262994324     -0.05595308733511
  N   5.69142852433806      2.48312925847641     -0.05564571375312
  C   5.08789278545840      1.26018043986093     -0.05533389946733
  C   5.77536794139242      0.05726639851108     -0.05537340188471
  Br  7.66299854476481      0.04191474343660     -0.05605486697898
  C   5.07616249461418     -1.16695471434639     -0.05494928547990
  C   3.68460338269326     -1.13663870603001     -0.05456238052951
  N   3.29603766855558     -2.45119312896393     -0.05416139111603
  C   4.44292966171727     -3.20123279658756     -0.05436939101980
  N   5.52245549052748     -2.46851364590146     -0.05478887247757
  H   2.03508131159739      2.52410169726060     -0.05486633166672
  H   6.69986106917122      2.52320501683760     -0.05585874849947
  H   2.34634453996795     -2.78026928977836     -0.05387679593886
  H   4.41486062620147     -4.27899939334980     -0.05413752066114
