19
Coordinates from ORCA-job 15454optt
  Br  1.91669775551332     -0.10373929679189      3.19847800388665
  C   3.04912496186584     -0.29812834619726      1.70686104665178
  C   2.86449073143452      0.53402804563669      0.59899370553756
  N   1.79970650487510      1.40582306138567      0.58940675999120
  C   1.77031741079431      2.46357994250752     -0.11398564109589
  O   2.75837887154208      2.96760606708536     -0.88137332176170
  C   3.14290329428192      2.14867762995388     -1.99955984512421
  O   3.01736727512952      2.64123197249137     -3.08186614568061
  N   3.68533531439292      0.95354045919871     -1.71997653844997
  C   3.71851847008140      0.37065218604147     -0.53839306514169
  N   4.65986735590706     -0.62628854244960     -0.45480895650697
  C   4.93090574327338     -1.47827901796113      0.59635694601260
  O   5.80432658807130     -2.31070473418068      0.50291415146743
  C   4.07253252019658     -1.28960431356241      1.82713882065117
  O   4.28605159251296     -1.98098425630241      2.82014350582843
  C   0.52304100391388      3.27692270739364     -0.01320385097203
  O   0.29897869739569      4.27309106266811     -0.64309126852125
  H   5.22318469047904     -0.75144188900359     -1.28583127232068
  H   -0.18772878166087      2.86001726208655      0.72079696554821
