19
Coordinates from ORCA-job 15450optt
  Br  0.93536431263110     -0.31837105655035     -0.12909643677118
  C   2.78973435223468     -0.00766953707828     -0.03815494746012
  C   3.63828720608501     -1.08266210968434     -0.06442024999808
  N   3.39290143030691     -2.40886935829725     -0.13647287255833
  C   4.58473165779220     -3.18003350133356     -0.11467775282108
  O   4.60019044486909     -4.40465590087624     -0.16231978462945
  C   5.66854079619880     -2.22136120826528     -0.02383732220416
  O   6.89039943788650     -2.36285327833042      0.02357814469821
  N   4.99794563585144     -0.92649758692420      0.00134876710249
  C   5.52638960057138      0.32667914414629      0.08374535076563
  O   6.88364094419970      0.37931127831518      0.20210496748064
  C   7.59804971673097      0.00679823127252     -0.89535625425306
  O   7.15955402534496     -0.06767382567985     -1.99523052253422
  C   4.73501271481767      1.42247057002975      0.10909869676016
  Br  5.51261317160566      3.13025190477346      0.19715210077316
  C   3.26620376891294      1.34626190846516      0.05598530123869
  O   2.54576844407869      2.33996489253248      0.08519389650522
  H   2.46902834314112     -2.80210086744348     -0.18636779792419
  H   8.63564399674114     -0.15798969907157     -0.59727328417035
