22
Coordinates from ORCA-job 15451optt
  Br  1.15937202407626     -0.32213862936583     -0.10676258130294
  C   3.07452590436453     -0.15536609073172     -0.03946508835417
  C   3.60326502800610      1.16907745044079      0.08314544544698
  N   2.77249110047909      2.22006906495245      0.17071994152339
  C   3.03563995472035      3.46519197828921      0.29928943173068
  O   4.24228033989065      4.15132609295367      0.39660542564999
  C   5.50888926758730      3.73119653505551      0.34558316282013
  O   6.40928202356431      4.55027617977938      0.43938159012379
  N   5.79463374387040      2.40508472691106      0.18685187942824
  C   5.04291642720814      1.23777065351992      0.10178308700485
  C   5.70330531390197      0.03562360152389      0.01638137941694
  O   7.08643922729080     -0.09619106927938      0.01628494742750
  C   7.38231408891520     -1.43861884337330     -0.08115990626062
  N   8.55836967160075     -1.88100960850737     -0.10951132752498
  C   6.10446867935908     -2.25367669955131     -0.14516384877083
  C   5.06786674010826     -1.17844117307734     -0.08103233687953
  N   3.72433825717178     -1.27635926634388     -0.11448717341157
  H   2.24444413249010      4.19603780609607      0.36756561351059
  H   6.79364284730919      2.26328672466695      0.17338019927548
  H   9.22631592543378     -1.11334653108699     -0.05187230914976
  H   6.07886690118819     -2.95844753784943      0.69143989695901
  H   6.09133240146368     -2.84534536502236     -1.06495742866315
