20
Coordinates from ORCA-job 15464optt
  Br  1.15796816260557     -1.37589021639794     -0.53614790141307
  C   2.84633822737706     -0.63039380484766     -0.24985036471649
  C   3.10057685207422      0.67433061100591     -0.37250556768653
  N   2.20150977711262      1.68890514989155     -0.69575788902425
  C   2.10495611334136      2.74975024729647      0.33282061482826
  O   1.11719415155595      2.77650540185094      1.07230129331643
  C   3.18238899209111      3.69367390901358      0.40537710590272
  O   3.28302536994809      4.71716060582274      1.04363167135249
  O   4.33230943716239      3.37181915100960     -0.48291480855030
  C   5.01749410810530      2.27442292973531     -0.18842076005736
  C   6.35499267661444      2.05566003493264      0.07541285065477
  N   6.59400853440178      0.72716696503357      0.28341968215739
  C   5.42935998356231      0.14054056003709      0.15848346782813
  N   4.44131419790458      1.03269811808321     -0.13424356896844
  C   5.09722693132619     -1.26804744506719      0.29434738853279
  N   5.86690615417288     -2.22194696788162      0.58004303498703
  O   3.77095031441266     -1.57458249475058      0.07697843322493
  H   2.44348888064137      2.09134565161152     -1.59560269159922
  H   7.13167603867603      2.79885779061119      0.12513374332483
  H   6.80231509691398     -1.84197619699036      0.71549426590590
