23
Coordinates from ORCA-job 15463optt
  Br  1.15838472579586      0.09369079712997     -0.58819605076826
  C   2.95431436860588     -0.03745463201666     -0.01951030855093
  C   3.52386797939375     -1.20024905001234      0.37918161391374
  N   2.84581443289069     -2.43334984290885      0.45575340960446
  C   3.41106064764379     -3.63729196866592      0.19934821248456
  O   2.92180095100653     -4.69242525354856      0.54579647547222
  C   4.69119458788203     -3.68726258279235     -0.68315316965250
  O   4.61855861802545     -4.24280153369411     -1.74077545348573
  O   5.84507873192159     -3.22495352762755     -0.21502811858379
  C   5.79953113628009     -2.29035690634986      0.93133807437004
  C   7.16659399507367     -1.60170159816769      1.01571486458298
  N   7.02534126184763     -0.33489968564282      0.27524619887219
  C   5.63556613697110     -0.03394030241614      0.29049233405668
  C   4.89823095833343     -1.15593266845685      0.68580672043906
  C   5.03075044361304      1.14106333016736     -0.17509898025485
  N   5.51839464933961      2.23575525474447     -0.65595526999848
  O   3.61829907535921      1.15322003728506     -0.00698716598383
  H   1.93096734490358     -2.46950465938357      0.88579620340922
  H   5.58667302879541     -2.91337750313808      1.80393930594446
  H   7.94699415438842     -2.23016577332802      0.58643321319066
  H   7.39023734525696     -1.42499317362881      2.07357986743144
  H   7.59452871812555      0.40342528126806      0.67206261442459
  H   6.52781670854661      2.13250596118329     -0.72878459091796
