21
Coordinates from ORCA-job 15462optt
  Br  3.33809395615659      1.85166683352875     -3.43141103685554
  C   3.56479150283755      1.14326116488433     -1.66941309978839
  C   3.92202377167521      1.97249267271668     -0.66287728140860
  N   3.81316624015183      3.36817216887563     -0.63511129427518
  C   2.63889258732050      4.06834750845476     -0.59577379262584
  O   2.58758121274581      5.27224006580398     -0.66761359775838
  C   1.32067043001771      3.25845713621247     -0.42254087333960
  O   0.42527349206781      3.38069004790795     -1.20476132186379
  N   1.30092415053369      2.49836176920674      0.73520656891517
  C   0.33928395047595      1.54623721959795      1.10080197898107
  O   -0.80505211273672      1.56696226018648      0.75685211888644
  S   0.96932490024437      0.22177586213641      2.18082901907115
  C   2.69163646767774      0.45740187465526      2.09776251411914
  C   3.29612621146528      0.37779908750524      0.85376384579462
  O   4.24844082099862      1.37479359579280      0.55784062817791
  C   3.00270847059801     -0.47245547754585     -0.22602913290634
  N   3.26965733541399     -0.15770220022652     -1.49827803062639
  H   4.63874855420109      3.95124228092953     -0.68757235000384
  H   2.18813217532046      2.39544113979478      1.21111933610423
  H   3.14753278781134      1.08300902269678      2.85504522537278
  H   2.49104309502314     -1.40719403311419     -0.03383942397063
