20
Coordinates from ORCA-job 15469optt
  Br  4.00415712070238     -0.93390301509843      2.76167148215316
  C   4.94137855766503     -0.68367418464339      1.14675817348078
  C   6.21426758199790     -0.26143453591391      1.06202243444906
  N   6.83280540187060     -0.17238651965612     -0.15976532862669
  C   6.25071271161263     -0.89183207479418     -1.10739426535970
  O   7.04415719950239     -1.30106491719501     -2.17512072129323
  C   8.36857623883050     -1.44937031129483     -2.13051121444249
  O   9.00206942692176     -1.60908016665939     -3.12826576928678
  O   9.02658818973766     -1.36052845963792     -0.94380162669492
  C   8.46584142278250     -1.66973390770516      0.25951568975493
  N   7.86803124989890     -2.75596858699004      0.45354450917651
  O   9.01059319811143     -0.83573337756321      1.20936691237966
  C   8.23432439625184     -0.24400360925288      2.16655929369254
  N   6.99937772437143     -0.00406528023256      2.19496182644283
  C   4.94171684015873     -1.42800606475261     -1.07954185828741
  N   4.30060453003445     -2.16176074021808     -1.91059421440499
  O   4.21298081230402     -0.99761465045642      0.04346799628510
  H   7.58789790201652     -2.86216103176839      1.42422509878455
  H   8.86569848302172      0.03632177015626      3.00280242676649
  H   4.91222101220750     -2.36300033632371     -2.69790084496939
