21
Coordinates from ORCA-job 15471optt
  Br  1.05034073192731     -0.21507475962446     -0.05352099655268
  C   2.92555185789625     -0.07330168176403      0.02360433705408
  C   3.70179326554641     -1.21383843369946      0.25081963036544
  N   3.27630564842017     -2.46446479917625      0.42393059418042
  C   4.25078090329260     -3.29064347029143      0.78752051330012
  O   4.07026003112742     -4.62065679370420      0.39443449442969
  C   4.91814937789861     -5.54746906748953      0.80863856486783
  O   5.91267432782560     -5.37009243283982      1.45731249844995
  S   5.91375111574597     -2.57596664814746      0.66046039398897
  C   5.14027681820256     -1.05052747990544      0.31118342216300
  C   5.69280783606298      0.16980475820116      0.13248638719496
  N   7.08585551403238      0.34024287734500      0.13933819187796
  C   7.80676461638984      1.48170541212954      0.04084241925807
  O   7.37062565149741      2.60882678489602     -0.06277984648154
  N   4.90040775738431      1.25843084386561     -0.09612710634507
  C   3.49170508080878      1.22118995507478     -0.15909783120308
  O   2.89943670278768      2.27728570228834     -0.36011930998232
  H   4.57393906849172     -6.52898000094145      0.46014058812270
  H   7.60957151305664     -0.51799334179595      0.22928628021408
  H   8.88857022194326      1.27424651762566      0.06506203698726
  H   5.32743195966192      2.17027605795343     -0.18641526188985
