22
Coordinates from ORCA-job 15473optt
  Br  2.37515534719287     -1.99519106997651      0.27387318874916
  C   4.18915622635087     -1.36577497041087      0.13832826072200
  C   5.27287075873054     -2.22547788942191     -0.24295747726447
  N   6.35036294145423     -1.59415419314201     -0.83603507218063
  C   6.52078517507121     -0.33046189656045     -0.62424400346161
  O   7.73969598302969      0.22412874755568     -1.10380655791174
  C   8.74613556840877      0.43804555235342     -0.24154303814189
  O   9.40677293304947      1.43168954072399     -0.26952232003922
  S   9.12680370713237     -0.84606760489874      0.96953733372044
  C   8.58608610673726     -2.27071179783594      0.06880469862161
  N   8.12430039526742     -3.29822085426055      0.63109709860804
  C   7.61362204872774     -4.24015099812380     -0.30377990549226
  N   6.40404563509084     -4.39112519777854     -0.59999556907160
  C   5.37491482181769     -3.63971781063574      0.05426287257859
  N   4.61737542105881     -4.34644006707317      0.82291584788105
  C   5.63645689135021      0.54244935646456     -0.01084401883865
  C   4.36565008025956     -0.01900850328460      0.26135878007851
  H   8.68333014930618     -2.15505427911960     -1.00873116558741
  H   8.36186581205757     -4.87197258345028     -0.78630350980420
  H   3.91934763134096     -3.75987076582676      1.26713006383178
  H   5.86560248591574      1.58786892810025      0.12293730602168
  H   3.52966388064983      0.61221835660161      0.53251718698082
