22
Coordinates from ORCA-job 15474optt
  Br  1.84964899559783     -2.54414524982049     -0.84778559651349
  C   3.29602950597220     -1.29433478179887     -0.81494919974056
  C   3.75113404426877     -0.78504275948153      0.33879704774161
  N   4.81138273983990      0.13446481075043      0.31414320983634
  C   6.04245599660670     -0.19907554320736     -0.33732044962621
  O   7.08217573896836      0.22852732835813      0.13622300183921
  C   5.87323631549347     -1.14269730888872     -1.40796805905151
  S   4.31814801768568     -1.11838990469219     -2.22799890555783
  C   6.84870926068078     -2.15337687415467     -1.57210574693510
  S   6.50159243256850     -3.84195971964091     -1.78924906746379
  C   6.53022398705311     -4.60819986281054     -0.14810880046047
  N   6.92737085491877     -5.78043551350057      0.07855449429466
  O   6.15565685911153     -3.86861274574247      0.95952497691679
  C   5.06573533706365     -3.09343618901128      0.86447682651062
  N   4.68496923553390     -2.39516475911305      1.84666334365268
  C   3.58696262198537     -1.52764437674703      1.63569755921222
  N   2.67529095602640     -1.40739089516162      2.50379675209605
  H   5.01427133447398      0.56335287819859      1.20788906529563
  H   7.81786916536813     -1.93713393163252     -1.13869847799043
  H   7.27375921964684     -6.19333216253708     -0.78441938715636
  H   4.55958097643890     -3.17022556767950     -0.09518681407977
  H   1.99679640469693     -0.72074687168661      2.18002422717969
