19
Coordinates from ORCA-job 15483optt
  Br  0.88788038266890     -0.30124764817550     -0.08512978970531
  C   2.76361554782091     -0.09229934819824     -0.07041413153227
  C   3.42430663431363      1.14966472899070     -0.06774430898322
  N   3.22101009504941      2.52928583125353     -0.06969974819797
  C   4.45390364352810      3.24624430626284     -0.06458820496074
  O   4.56297227704772      4.45761896350857     -0.06508816142321
  N   5.41050374383783      2.23959784382307     -0.05922948395778
  N   6.81052540401979      1.98055116807158     -0.05352786646079
  N   6.93267148890279      0.63505599382867     -0.05179845501349
  C   5.71621407497586      0.04415745653888     -0.05625552530586
  C   5.01783551321064     -1.18987398551314     -0.05831500697757
  C   3.62154305329551     -1.20620956450276     -0.06503830804978
  N   3.28947104511190     -2.56022592635322     -0.06557015253498
  C   4.41627018910132     -3.33858930333654     -0.05973221338472
  O   4.49644558169940     -4.53978390283894     -0.05855765790012
  O   5.48208031921013     -2.49540820251873     -0.05511407177951
  C   4.78039082327137      1.05531804162060     -0.06100929049782
  H   2.34584773643532      3.02210178830479     -0.07382212630421
  H   2.36251244649944     -2.94695824076615     -0.06936549703065
