22
Coordinates from ORCA-job 15488optt
  Br  1.22764282242966      0.71636440040228     -2.68128901333947
  C   1.59132327348517      0.76231924815487     -0.81539755291071
  C   2.65072193334839      1.54163212788355     -0.34970198706487
  N   2.86078696717636      1.48086656697979      1.02566730936854
  C   2.06924136854709      0.74726233288189      1.92618324737893
  O   2.45614639061839      0.65657097935296      3.08083547859759
  N   0.90579574814604      0.24223186252976      1.44203428260741
  C   0.68265781945263      0.26558829361915      0.11601890690811
  C   -0.72294683025217      0.15822408816431     -0.32456173518803
  N   -1.66734700422888      0.84626915605767      0.18115494543123
  C   -1.43573809698614      1.80431661146617      1.19604388004003
  O   -2.06734263747015      1.77893279506712      2.22561093359260
  C   -0.49349010068213      2.92541113659429      0.91934344446914
  C   0.05639674378459      3.20287960408523     -0.26497763807733
  N   0.90568676979315      4.27943914649943     -0.51508483125881
  C   2.09737410783762      4.25418149950783     -0.90913112960501
  S   3.29059745198635      2.93009071484350     -1.17147549861848
  H   3.67158154121197      1.92731130787015      1.42330334685454
  H   -0.96469997180329     -0.46440080439144     -1.18423031526802
  H   -0.25576089512782      3.52137434161115      1.79131339124752
  H   -0.22599410839435      2.64144474762548     -1.15148209360810
  H   2.57436670712751      5.20468984319483     -1.16117737155680
