24
Coordinates from ORCA-job 15489optt
  Br  0.00680847247973      1.77221397052291     -1.65954450361009
  C   1.14898610327515      2.03141765368468     -0.17438629024093
  C   2.53763033970407      2.24894730574064     -0.37455699547247
  N   3.29034536519674      1.94413389541042      0.73616374493014
  C   2.78021439154751      1.82289815804640      2.04809733846370
  O   3.58127372448519      1.65962989645325      2.95527047566273
  N   1.43254218334447      1.94252360793483      2.20735722198354
  C   0.65988548851242      1.97737041525054      1.12138784229163
  C   -0.82388609021626      2.01905279698150      1.44123915929763
  N   -1.43038883658708      0.98923230773445      1.82032158676621
  O   -1.46531193187991      3.25580115743798      1.42539572683390
  C   -1.23461912852154      4.03292067810580      0.29265900453851
  C   -0.11528013724121      4.74469135419906      0.18147701547025
  N   0.44862385224120      5.00255419637031     -1.07394062574543
  C   1.68807417664613      4.61970062239039     -1.02127687373182
  C   2.51531296920377      3.99340872100783     -2.02148074402212
  C   3.12900726887191      2.84717146158482     -1.53843108102881
  H   4.28545909014097      2.11019204752832      0.70179155121170
  H   -2.40196130983976      1.22644028035792      2.02572228011649
  H   -1.89841441077741      3.83577150719059     -0.53819847569838
  H   0.51659010903499      4.81532961659455      1.06987393150565
  H   2.13477463210762      4.50839950918413     -0.02571792020849
  H   2.57537885534751      4.33565815755897     -3.04793913674538
  H   4.03095482292376      2.41854068272964     -1.96828423256818
