24
Coordinates from ORCA-job 15494optt
  Br  2.45732874074187      1.13053600844114      3.18776542498515
  C   2.86955035238873      0.85534205306075      1.36583164914685
  C   3.59264766828941      1.76937871974266      0.65807195547379
  N   4.01452295130511      1.41485530727067     -0.58390809664293
  C   3.47273312868339      0.28179986947087     -1.27233448772252
  O   4.00755083827889     -0.06252399575497     -2.30785603305925
  N   2.33545516107652     -0.20873323750396     -0.73672122246141
  C   1.96487530729801      0.12077104663984      0.48859500000585
  N   0.72329375216322     -0.11862004928513      0.92914551208392
  C   -0.40059624901329      0.39922751894209      0.46406604088306
  C   -0.72007977206841      1.61761166552704     -0.17514522245664
  C   -0.00815793946960      2.82544217455871     -0.30434393716039
  C   -0.50919564592686      3.88130553474165     -1.13819378798425
  O   -1.51038650030627      3.84607852801296     -1.84824595244622
  C   1.19077752533910      3.02041987413705      0.48714921035014
  C   2.36616182450899      3.60023610642416      0.21586564495543
  N   3.54549398603860      3.16105109410162      0.97274405207210
  H   4.44509222649168      2.10612479812819     -1.17896921431263
  H   -1.27447584937187     -0.22168433248605      0.66505570377119
  H   -1.71210185808994      1.63430380087064     -0.61540609692941
  H   0.08531545381258      4.81675023290727     -1.08833391135732
  H   1.16086003453654      2.45625489687892      1.40874187345256
  H   2.56414563591606      4.16032677485711     -0.69153295012630
  H   4.37718922737739      3.65274561031663      0.67095884547925
