23
Coordinates from ORCA-job 15496optt
  Br  2.79491263855107     -1.11020800551461      2.00395370527968
  C   2.53267968204840      0.61213956418637      1.08206854957071
  C   3.71906744789718      1.44064123394396      1.19293224008641
  N   4.91025618092928      0.97095415453727      0.60150191688793
  C   4.84934833631436      0.33300657530650     -0.60905751111300
  O   5.82753495011153      0.02716774236167     -1.26616404973868
  N   3.56196622316146      0.08984394952578     -1.06773709542397
  C   2.37430594097885      0.30025169328144     -0.36177692989662
  N   1.30430315678902      0.30929810053304     -1.06272651751700
  C   0.06841772620674      0.54701984827640     -0.47362436898212
  N   -0.72017082606554     -0.32198731349256      0.01006557196111
  N   -0.46404102016391      1.85004724705928     -0.61882964362417
  C   0.11645157101647      3.10001741666661     -0.56154468244493
  O   -0.58885893639180      4.08843200843308     -0.53886597961496
  C   1.60479894466178      3.12115749900839     -0.47665976598117
  C   2.16556142875507      3.07459170782612      0.72099138672109
  O   3.50691083302456      2.80287779921155      0.87534667144296
  H   5.82554056349796      1.30237847069178      0.86207167723148
  H   3.50535627680554     -0.20623019256535     -2.03061526823844
  H   -0.25455855895906     -1.22591854257692      0.01489620763354
  H   -1.46591087503818      1.87262471533163     -0.48126572998700
  H   2.18647937993410      2.91704219234424     -1.36612435156950
  H   1.59864893593507      3.18285213562431      1.63816396731664
