20
Coordinates from ORCA-job 15491optt
  Br  1.03230371719804     -0.36171704706259      0.15763397222294
  C   2.88962568107286     -0.02793785211247      0.01382768636052
  C   3.48534019478277      1.23378544005413     -0.02511644481291
  N   4.87962256458767      1.24042055677433     -0.06630332459725
  C   5.61744624677184      0.05652788551286     -0.42867253145665
  O   6.69429458397124      0.15138417770423     -0.95584667675700
  N   5.01164788771482     -1.14390869463701     -0.14992184514633
  C   3.72084024971552     -1.15092616653639      0.04001574539911
  C   5.64640876011982      2.43636958840696      0.24848047936191
  O   6.77723623136293      2.31983910942745      0.64014999558386
  N   5.01386622180824      3.63269336626470      0.09626907000626
  C   3.71413627541857      3.63173005577985     -0.03946752798020
  N   3.09378746189139      4.83250737550367     -0.16603844208006
  N   1.75102407997429      5.03356229623015     -0.23402450485443
  C   1.05733690753773      3.91619727091810     -0.18166151263642
  N   1.50093657168159      2.66796517736478     -0.08977871767684
  C   2.84816623592763      2.50009458973291     -0.03795620663323
  H   3.25928066540983     -2.11891835675763      0.22212848868774
  H   3.67298689933240      5.65714114425411     -0.15516516538944
  H   -0.01728743627920      4.05419008317784     -0.22755253760160
