22
Coordinates from ORCA-job 15495optt
  Br  1.39145015744722      0.20726218844320      1.30470185432911
  C   3.07775531319443      0.01357879810708      0.47869222150454
  C   3.63095581283316     -1.20811117616890      0.17309989973736
  N   5.03009230550707     -1.24710790971548     -0.09895860733802
  C   5.70330773049368     -0.12383527413390     -0.54588955452403
  O   6.81245496465061     -0.13625326110337     -1.03915021891337
  N   5.01685921247674      1.05305659223381     -0.38564281450121
  C   3.78599778654656      1.24775271236414      0.24977633422080
  N   3.33134225340857      2.40951920162306      0.53651449039766
  C   5.74953336017951     -2.46294456956483      0.13003369957894
  C   7.12672315676842     -2.39867783712122      0.56848499385572
  O   7.83607836915085     -3.37999167893633      0.72274733223905
  N   5.12307000427639     -3.63358413490384      0.07226837790213
  C   3.81397012809472     -3.62802470747489     -0.01980537638597
  C   2.99807121876456     -2.48369533471710      0.07317870682040
  C   1.58190992722106     -2.66783923703367     -0.18156625608263
  O   1.02668761883188     -3.75390291891649     -0.21112651920660
  H   5.53255592668264      1.86406262582556     -0.69017134808456
  H   3.99843462559343      3.13385039864026      0.28007650662935
  H   7.50830170842880     -1.39268429578186      0.79229855062424
  H   3.31735392312031     -4.58164811286127     -0.15741824145014
  H   1.00809449632936     -1.76378206880396     -0.42914403135278
