20
Coordinates from ORCA-job 15501optt
  Br  1.48433537890479      0.80499637241157      0.19437126441120
  C   3.28448381655133      0.27477628768085      0.13886666673920
  C   4.33739300898246      1.16086608338523     -0.13631812408935
  N   5.65804577340741      0.71231213639260      0.22217549898012
  C   5.98417908858849     -0.66046506272079      0.10337899442331
  O   7.11439365571990     -1.06551062975278      0.00771081044835
  N   4.89226765444409     -1.47597720188019      0.10214179968515
  C   3.53371888046563     -1.11920327947045      0.29987756974874
  O   2.73307168467568     -2.01770469355254      0.51284222890442
  C   6.43294767852611      1.44392867058568      1.12837977079462
  O   7.10727423718928      0.94948662603088      1.99430065165319
  N   6.34263925987023      2.82511037048660      1.01479230138972
  C   6.20143016727570      3.57298882633999     -0.15206195100151
  N   6.75391309601909      4.70812866624890     -0.22890744451025
  O   5.49052515617584      3.00132201226759     -1.12847572873002
  C   4.21486877956462      2.40427951022808     -0.79519030447347
  O   3.23438952708177      3.01391518286576     -1.14528239561611
  H   5.07959565063524     -2.46649068544330      0.06622737965100
  H   6.89943922225151      3.29520181916577      1.71385120673146
  H   6.48808828367075      5.14303898873053     -1.10768019513976
