21
Coordinates from ORCA-job 15516optt
  Br  1.06404101572475      0.06343328555858     -0.19075187013039
  C   2.96278487542127      0.04917741030368     -0.10983946391105
  C   3.64156521041694     -1.14621425850592     -0.05753207893655
  N   2.96569247886263     -2.37387238015332     -0.04605172775579
  C   3.70143446688407     -3.40067699586769      0.00175761674995
  O   5.03388722363112     -3.46647806816394      0.04037336884203
  N   5.80396438105348     -2.27091303307377      0.03756952776703
  C   5.06957109387516     -1.15579926865620     -0.01095915758482
  C   5.81677661262099      0.09554845552105     -0.01461824817573
  O   7.06363698782720      0.17759598596567      0.02243097918729
  C   5.00535811760355      1.29258036706501     -0.06265432294167
  N   5.80409438864333      2.43773125614370     -0.05268920626012
  C   5.45298234961455      3.73529095064439     -0.08488257317930
  O   4.32882123649425      4.19186265091891     -0.13423565648576
  C   6.69014634547734      4.63499271597478     -0.04971877655626
  O   6.63099094647858      5.82872819548584     -0.06279830756755
  C   3.62995786414196      1.28282769418601     -0.11073898870058
  H   3.27189053215801     -4.39848709982867      0.01856470450934
  H   6.78632003836769      2.16488633763080     -0.01249851904039
  H   7.66461825189173      4.10693168701953     -0.00996843962817
  H   3.07746558281136      2.20885411183156     -0.14575886020148
