19
Coordinates from ORCA-job 15517optt
  Br  0.94886424152206     -0.14286914269739      0.28051607317307
  C   2.83809086792867     -0.08268591750114      0.08619237279020
  C   3.49948039912547      1.13820357976756      0.01037387820696
  N   3.13527942376740      2.46223198961627     -0.00419311835661
  C   4.29017092217542      3.25447995860827     -0.14667153604525
  O   4.27174234925172      4.47278056305049     -0.19811318776037
  N   5.38252428968940      2.40398762177663     -0.20986637411249
  C   4.88860085038450      1.17833161559999     -0.11498618577478
  N   5.59624805816052     -0.03168911862541     -0.08734924556538
  C   6.96391583109142     -0.07783755170754      0.11573831969873
  N   7.80314950518504      0.85164477388516      0.05141359914326
  O   7.44735723104159     -1.31802916282578      0.53152036621258
  C   7.13793821152350     -2.51115390746094     -0.01890930246797
  O   7.89622836575294     -3.42777197667784      0.04923947734126
  S   5.57117168854184     -2.63769772805801     -0.82485050026955
  C   4.79931181653419     -1.20173005311778     -0.19186090900568
  N   3.50001398608768     -1.21516427189069     -0.06510075736693
  H   2.20287824442968      2.83265272772044      0.03796198991961
  H   7.34003371780688      1.72931600053770     -0.19005495976067
