23
Coordinates from ORCA-job 15510optt
  Br  1.43943277961395      0.88697225651358     -1.01099517619666
  C   3.19607648516763      0.49931330242012     -0.40424520635389
  C   3.63177987653335     -0.76126551237783     -0.23625995467894
  N   3.04978528227365     -1.99243373268225     -0.36683384276310
  C   3.98917372610844     -2.98276847095730      0.03742746994884
  O   3.70399586186869     -4.16601060574334      0.07997179846187
  N   5.17771312212996     -2.36186679058390      0.33229436598101
  C   4.98545895359106     -1.05009880292657      0.16079726753906
  C   5.96171662427333     -0.01061513162742      0.23866533882911
  N   7.21281201964388     -0.18323379324049      0.54398243562976
  C   5.47731689505618      1.34434856239248     -0.14396548714927
  C   6.36046931946618      2.33634998917646     -0.38904007859428
  N   6.11009999816779      3.60953756120825     -0.88350971863803
  C   5.07812126728435      4.28381638504009     -0.55119473044061
  C   4.04705688615357      3.89572664518467      0.41362709448433
  C   3.59786721357211      2.64950944963521      0.53463119319296
  N   4.06634465864680      1.58581996433753     -0.27361017600127
  H   2.07760883910829     -2.18497743020755     -0.52829916061076
  H   7.35029372553355     -1.17937705340557      0.71878319813420
  H   7.40403847834092      2.07270117853759     -0.28764620571472
  H   4.99126497525233      5.28167557525457     -0.98218900128478
  H   3.62497013146436      4.66377270890500      1.05047047284668
  H   2.83060288074957      2.38710374514665      1.25813810337848
