20
Coordinates from ORCA-job 15525optt
  Br  0.87411677535615     -0.43645972303653     -0.02656902747393
  C   2.74474125824893     -0.17122942463401     -0.03710283567395
  C   3.55257852414732     -1.26608206360781     -0.06363789820417
  N   3.37415245933751     -2.62497523173618     -0.08082506700596
  C   4.64388545070612     -3.24777470486440     -0.09197915442641
  O   4.78840512016711     -4.45195600152380     -0.10257213165007
  N   5.61866216603064     -2.25928454844378     -0.08788691993208
  C   4.97071333348952     -1.11594467614945     -0.07153227356815
  N   5.49512354321788      0.12826867755748     -0.06235930989124
  C   4.71252622533914      1.25410673335033     -0.03951313942453
  N   5.34391078560624      2.44510639265052     -0.03685679880308
  C   6.75049061374266      2.66811019079511     -0.05739968899238
  O   7.57184590456172      1.70331619128397     -0.08031721340866
  C   7.08921059773600      4.03433655161587     -0.04992058018222
  N   7.35362817222026      5.16904592664898     -0.04406394697615
  C   3.31865649194385      1.11495273817377     -0.02090518542082
  Br  2.26043990543373      2.67291600674652      0.03453398159795
  H   2.50353500026664     -3.12507122327858     -0.07766030813920
  H   6.51399511806393      0.33244035533508     -0.07402211611359
  H   4.75538255438460      3.26317783311690     -0.02341038631136
