22
Coordinates from ORCA-job 15538optt
  Br  0.90089925667186     -0.04485593027313     -0.29415792735828
  C   2.79335357955846      0.06622929780779     -0.15622737881802
  C   3.57599300326771     -1.07677474277519     -0.13682112594949
  N   2.99611426162650     -2.33160698875836     -0.20388675319135
  C   3.69312954268733     -3.52124878912545     -0.21011931808462
  O   3.12416065784554     -4.59584966583356     -0.27109731905994
  N   5.03368392623737     -3.36184380533916     -0.14426522925610
  C   5.73406198520887     -2.15786747727841     -0.06065577408120
  C   4.98700677120647     -0.95599233207258     -0.04881482144367
  C   5.53423373614379      0.37717481381445      0.04048824240187
  N   4.71256853837675      1.44909079819998      0.01983449623927
  C   3.40823055026234      1.30543408107732     -0.07786216928446
  N   6.83802764987612      0.70874006116885      0.15605237130595
  C   7.88395496786010     -0.10048059744660      0.17897484880612
  N   8.12802360288826     -1.38909198354632      0.10345865015636
  C   7.18297327032811     -2.37840368106895     -0.01760801774192
  N   7.54836571251532     -3.61924336696995     -0.09184041147186
  H   1.99325977323232     -2.41323686919945     -0.25798464811271
  H   5.63251312995052     -4.18297125925977     -0.16097770095935
  H   2.80426135209667      2.20756283781582     -0.09196992814857
  H   8.81139485063207      0.46829365569447      0.28386342242408
  H   8.56378988152746     -3.64005805663176     -0.04838350837210
