20
Coordinates from ORCA-job 15530optt
  Br  0.97027889003115      0.07863082951555      0.04812015063558
  C   2.84843236916731     -0.06290922480841      0.04691327854485
  C   3.58552285854069      1.11748550034239      0.04600303748422
  N   5.01318302508142      1.04391001083774      0.04558489174827
  C   5.56490466842663      2.30340021842574      0.04512760904366
  O   6.75108857480897      2.59920002023468      0.04465299511441
  N   4.49341670252075      3.15581466584498      0.04522175064571
  C   3.23628295072531      2.49739732831629      0.04573245816923
  O   2.16994893449754      3.10607023923127      0.04573637651777
  C   5.70884351407242     -0.16460553910267      0.04524186344369
  C   7.04831069686083     -0.26013194443558      0.04429061802704
  O   7.67132181921178     -1.50797118341911      0.04399846488323
  C   6.84489081413905     -2.58359949909546      0.04466172918513
  N   5.57846965692680     -2.57904312838535      0.04561447865897
  C   4.89886959448976     -1.37440701657313      0.04599426540786
  C   3.50885208829880     -1.29655108893597      0.04707567449741
  Br  2.54377150988900     -2.92504848118587      0.04894822721804
  H   4.59248304520004      4.15533727072087      0.04498200341039
  H   7.73551599213105      0.56500452360326      0.04380735786640
  H   7.40961229498067     -3.50798350113121      0.04429276949814
