23
Coordinates from ORCA-job 15533optt
  Br  1.74017568040433      0.55518533105669      1.21751911813864
  C   2.95294415081428      0.02951503935295     -0.28230673201208
  C   3.53802277828191     -1.22944977230222     -0.25102078604842
  N   4.95344403423113     -1.28891676186585     -0.49579369269245
  C   5.37326501531107     -2.61402709044630     -0.54652437317593
  O   6.49223092901271     -3.04468788889006     -0.78825293217830
  N   4.24704894076928     -3.34068056626076     -0.31494314826359
  C   3.06506862125348     -2.55434535980394     -0.12579417841721
  O   1.96514246442720     -3.05886099578093      0.06159890301850
  C   5.67718916862957     -0.13757806188724     -0.23499918631244
  N   5.13211991349871      1.01759829558303     -0.22926303488791
  O   3.77319065925105      1.04675124054323     -0.67442530897097
  C   7.14859265803984     -0.15434225873166      0.09282158037460
  C   8.06337092403817     -0.65292869304004     -1.05950061069665
  N   8.93569577298637     -1.62037053380824     -0.37748753161685
  C   8.39240617327337     -1.77544596889590      0.89239290123572
  N   7.46044902002232     -1.00035604196253      1.25365190742312
  H   4.23575824850377     -4.34460526906037     -0.35901770366692
  H   7.37665113464943      0.88179041195124      0.34168504058311
  H   8.64736233256008      0.16460332178728     -1.47952953292314
  H   7.49419190703259     -1.13937876627329     -1.84928024496635
  H   9.03427209182767     -2.50085977405895     -0.86562307901015
  H   8.80440738118155     -2.53860983720609      1.54409262506567
