21
Coordinates from ORCA-job 15534optt
  Br  0.68007181363592     -0.44985483058324      0.80503797704002
  C   2.78689913173806     -0.03137740980786     -0.15553901767708
  C   3.57130845802188     -1.12805391409888     -0.15523643790788
  N   3.37987925901097     -2.47293552124656     -0.43175841331410
  C   4.56950575397515     -3.15457114363054     -0.19419327474871
  O   4.72410545779190     -4.34968328847698     -0.31959409326355
  N   5.55050623057480     -2.21819081574070      0.21223257164868
  C   4.93014642440319     -1.08668085586112      0.23128222434968
  O   5.49604941227766      0.07390106743955      0.62900720683537
  C   4.76706358633938      1.22506943790265      0.67196195185806
  O   5.29249573375683      2.23721536182056      1.03505496730352
  N   3.44246340944676      1.14132808499100      0.25437001969183
  C   2.77410438750746      2.37003764145814      0.14172218334602
  C   1.73451295828468      2.90811691808853      0.81339911718962
  C   1.50373624456012      4.18157087429676      0.20381364070549
  C   2.42761401369126      4.30345886177319     -0.77682428138599
  O   3.20563263827745      3.20179531020505     -0.83397462865387
  H   2.49037021280646     -2.92073363845534     -0.56816707450295
  H   1.19671090567422      2.43179262188474      1.61357166368612
  H   0.75137686059637      4.90610556920438      0.46452844681600
  H   2.65044710762936      5.07668966883662     -1.49069474901627
