21
Coordinates from ORCA-job 15546optt
  Br  3.30357804987990     -0.68846453300958      2.85729169401693
  C   3.27512625583934     -0.06912936916815      1.08317132643745
  C   2.75224866260998      1.16623303469758      0.75263037082868
  N   2.25579733103860      2.04894099059503      1.74517279573719
  C   0.77315071909435      2.08927030251707      1.70341300376690
  O   0.15406643643335      1.36915469369628      2.45103214528354
  N   0.24242842974228      2.98083965314452      0.83422986569168
  C   0.96819150030893      3.32286290128914     -0.22357587869413
  N   0.63928269707707      4.38610561058179     -0.99876122040125
  N   1.44077613145027      4.50567871178493     -2.08411458420912
  N   2.28314111361936      3.55136765811754     -2.05713564692080
  C   2.07307882410898      2.77046443332436     -0.94150302341085
  C   2.74763791962211      1.55884731241809     -0.60634811698285
  C   3.34972361615254      0.66510532787882     -1.58957902117564
  N   3.30659177959795      0.93993285773801     -2.86045653148547
  N   3.92845271530722     -0.52788618253660     -1.17170931390090
  C   3.86194897533015     -0.86958244664102      0.07753803309280
  H   2.57823475206130      2.97868007578789      1.49013997448985
  H   -0.13047862339999      5.01456734381923     -0.84929973066367
  H   3.77977948496648      0.17144749456586     -3.33890315596450
  H   4.30224322915980     -1.82043587060080      0.36476701446414
