23
Coordinates from ORCA-job 15549optt
  Br  1.13831973009566      0.18791004226671     -0.48531930654952
  C   3.08121376640855      0.15328851558117     -0.26396673375241
  C   3.68336785180345     -1.09914281313235     -0.20182899741315
  N   3.04719087256065     -2.35122375283190     -0.27450439001873
  C   3.62786124556493     -3.51500640201973      0.11633831209250
  O   3.02960257306597     -4.58511093411381      0.16352317494731
  N   4.95371084099683     -3.39951583735363      0.48387811721588
  C   5.82442929826933     -2.35158868066864     -0.04197280209739
  C   5.09438026719546     -1.03604374379238     -0.06180813645870
  N   5.76343607255680      0.07178838834681      0.01333396354300
  C   5.06264393181218      1.24588431126455     -0.05731682930967
  N   3.67966260051486      1.28293644627865     -0.20856082202965
  C   5.76374226990519      2.48202421650384      0.02256267572078
  N   5.16901424381217      3.68798960216867     -0.04396686372094
  N   6.22476365383371      4.53626637399057      0.07858661572485
  C   7.36788725933874      3.84364384654586      0.20734896022026
  N   7.14124727274977      2.56302233233672      0.17999844253985
  H   2.05904560618302     -2.39063155438315     -0.46858724577231
  H   5.36703397997069     -4.30774475039729      0.62233933830450
  H   6.16449125244287     -2.59228455100322     -1.05830736460760
  H   6.70322876859972     -2.25583251277999      0.59351182523147
  H   6.07956473526517      5.52830469043961      0.05733682085762
  H   8.33116190705419      4.31906676675297      0.31938124533205
