21
Coordinates from ORCA-job 15542optt
  Br  0.90669880185521      0.57974744136881     -0.00496665716661
  C   2.75842021493384      0.24830885955300      0.00819152198088
  C   3.38635868786029     -0.95716661003093      0.00857354561483
  N   3.18859976666019     -2.36021573614454      0.00316421412123
  C   2.03668176476172     -3.07089939724273     -0.00020824073757
  O   0.91779842428587     -2.60124576386028     -0.00111607782980
  N   4.42255415256795     -3.07929498909613      0.00667875586535
  C   5.36556791196373     -2.11732498577347      0.01541084849963
  C   6.79089298151064     -1.88971895969644      0.02368714176130
  O   7.77003623902002     -2.62430334743969      0.02579241926631
  C   6.94535933360382     -0.31628573375190      0.03096682903444
  N   8.06328713048960      0.27621649128016      0.03934248327389
  C   5.58969926146508      0.25838570205265      0.02564974513889
  C   4.78468953167382     -0.83595380609233      0.01696466133264
  C   4.94165817917733      1.53398611895827      0.02747165491276
  N   5.39225298612542      2.73442004117217      0.03674171929743
  N   3.52079049997079      1.39700777541004      0.01693584678282
  H   2.25315943357605     -4.14747837469130     -0.00198903134066
  H   8.78843686917683     -0.45065160252324      0.04031636532497
  H   6.40810216884960      2.70203230515424      0.04321972028014
  H   3.03595566047216      2.28143457139367      0.01717253458713
