21
Coordinates from ORCA-job 15544optt
  Br  1.35023431109142      0.39546376268592      0.16554658389263
  C   3.17066489479716     -0.05631394651333      0.05998709410240
  C   3.62706667616379     -1.32873095876914      0.00672653298703
  N   2.79768437521068     -2.43203666524506      0.02975083022625
  C   3.26234503334883     -3.73421768071235      0.15375744105239
  O   2.45966397280448     -4.63228954880508      0.33282139499443
  N   4.61423665961859     -3.94187357629745      0.01937465312615
  C   5.44674315117059     -2.93766147027847     -0.08234084351877
  N   6.75705185379168     -3.33043439727843     -0.33924448332357
  C   7.83021665419656     -2.68017507526344     -0.04747104966883
  N   8.11196276104264     -1.48026687611710      0.52277517498388
  C   7.23918001996851     -0.48683385268059      0.49047496282112
  C   5.90274844949804     -0.42979479378286      0.09458483438066
  C   5.33538206301144      0.92007410271254     -0.05184304407127
  N   5.92828000650208      2.02545326257396     -0.24142164569247
  O   3.96510179791926      1.03833805603733      0.01133918293716
  C   5.03349354095043     -1.55959090076660     -0.02922543465442
  H   1.80209900471520     -2.30840835221048      0.12572034322868
  H   8.74271856803772     -3.22255688231769     -0.30392599270615
  H   7.65080211004398      0.45701583880459      0.84515333719121
  H   6.92532409611685      1.87383995422376     -0.33853987228851
