21
Coordinates from ORCA-job 15545optt
  Br  0.95328339514563      0.23392234131512     -0.14995361600815
  C   2.82756646083800      0.05713055915207      0.11377441199430
  C   3.62358077145468      1.12152638394821     -0.04582840304827
  N   3.14038173455712      2.36994097627910     -0.43556430725215
  C   3.76938866100693      3.56094965576275     -0.16800434771066
  O   3.22848735965515      4.63753131532838     -0.31083762239706
  N   5.05361455840973      3.39760726981984      0.26325783175820
  C   5.77447362138565      2.20404373172171      0.16182514364095
  N   7.04746683846350      2.29059184667528      0.13601893507364
  C   7.82547534982340      1.14085190874999     -0.04572715149183
  O   9.04870049931214      1.23247423838581     -0.07940691743327
  C   7.14354020450010     -0.14867611758077     -0.19897069006709
  N   7.79848294428153     -1.26155365178195     -0.42085566954655
  C   5.70889992721210     -0.19311105923000     -0.00822882925389
  C   5.03486961601217     -1.36846083056695      0.03898276390851
  S   3.37138163413577     -1.54167360990675      0.54851336007226
  N   5.02699355818736      1.05452271835184      0.11343502553077
  H   2.15446727045954      2.44778139396212     -0.63133461940751
  H   5.63025830322381      4.22384220116798      0.30921347289060
  H   8.78621133659893     -1.01110847225892     -0.46815455133171
  H   5.58247595533669     -2.27913279929487     -0.14315421992109
