23
Coordinates from ORCA-job 15540optt
  Br  3.90734317154082     -0.08611617562500      2.86352497558043
  C   3.63052032508642      0.28002166613488      0.99417663773964
  C   2.53457709566190      1.10538832831473      0.64198863101586
  N   1.51920410966510      1.37530730277130      1.58606878732703
  C   0.99368410620849      2.57614772895597      1.96409624821716
  O   0.13072396880624      2.66201051500171      2.80902128866988
  N   1.45837756612581      3.70339508993114      1.22810251296749
  C   0.62398356278896      3.82891006771376      0.06724293749031
  C   0.70924021644695      3.00118436364537     -1.04348568582379
  N   -0.28926106327795      3.40505510568162     -1.89042973514262
  C   -1.01119738802701      4.43883964418106     -1.34236933447378
  C   -0.46281390797469      4.71759324177428     -0.11809846732909
  N   1.58944001532546      2.05482491472690     -1.49450530318056
  C   2.42425472449996      1.36760628813412     -0.75880603046421
  N   3.43048187356371      0.77039566930784     -1.49328151946342
  N   4.37405352215236     -0.15831334854985     -1.10457400276761
  N   4.47131460088730     -0.32096700943443      0.20545218517193
  H   1.17849415761535      0.60125087307492      2.13916242688731
  H   2.41283953992682      3.53328526605218      0.92445709430414
  H   -0.41295236593659      2.99567623470383     -2.79900134295688
  H   -1.85042806841560      4.87292341975692     -1.85687788967678
  H   -0.79791052969575      5.45724512408960      0.58979996351549
  H   3.37303076702589      0.90933568965711     -2.48866437760793
