21
Coordinates from ORCA-job 15555optt
  Br  1.30002677518570     -0.57437157159228      0.94845196356712
  C   3.09773080564903     -0.29913059442619      0.50271727687664
  C   3.69529736990403      0.90765107278223      0.49920075019956
  N   2.96638443625496      2.07434767959128      0.86726573896846
  C   2.81517160122854      2.90108957438120     -0.32168537621946
  O   1.87935854212763      2.73435175873216     -1.05871951396829
  N   3.78885423321314      3.85852618751911     -0.48071910196038
  C   5.03423625634233      3.56212415400685     -0.22458738992729
  C   5.70210532151258      2.32267875913774      0.04338576729697
  C   7.11896367105394      2.47557016687311      0.13570226238334
  C   8.29259805405351      2.72060651377845      0.24168466953949
  C   5.09647850071022      1.04032355409720      0.16114727206688
  C   5.84466335898692     -0.17263067569566     -0.02229558812979
  O   7.04768934051678     -0.26651952695262     -0.25471826174022
  C   5.07719404995030     -1.48011177462301      0.02391825208055
  N   5.60819654530083     -2.61047584712525     -0.13320872820867
  O   3.71940584892903     -1.45331357520950      0.21119696659978
  H   3.54549662239671      2.58742120991850      1.52610821764179
  H   5.71873436569090      4.40632736757909     -0.28101344221468
  H   9.33854874753844      2.88370505872457      0.32651100904629
  H   6.60386555345436     -2.43616949149701     -0.27934274389812
