29
Coordinates from ORCA-job 15558optt
  Br  0.81903609273818     -1.78689132436399      2.00542828991336
  C   1.99324992937217     -1.26150856344728      0.57250036041218
  C   3.16078039892377     -1.96857132944562      0.35491571789437
  N   3.22905873661668     -3.30923994266862      0.81120446072906
  C   2.45716225284485     -4.27603895507296      0.16766886183048
  O   2.38901440718200     -5.42735776454595      0.56460401376519
  N   1.79470445776441     -3.82885373131445     -0.93573597932960
  C   0.61685078977625     -4.45564075125082     -1.48831736457106
  C   -0.18779408744138     -3.40874871135422     -2.26032609975071
  C   -0.60825199538368     -2.21389217810102     -1.38744870088718
  C   -0.04685707621081     -0.85588071702362     -1.80411461445025
  O   0.20039403306653     -0.61169898197073     -2.97523342315241
  C   0.22697273327094      0.13728202573464     -0.69619986791257
  C   1.64444831791904     -0.16746959083420     -0.27338772873657
  C   2.75249758133356      0.34969715263303     -0.99780519879947
  C   3.95599478240453     -0.30108743542882     -0.98959418190846
  N   4.15255587433243     -1.53018989014869     -0.42434960740876
  H   4.10550418807338     -3.65236013395308      1.17219374372237
  H   1.98449084824890     -2.88814327495804     -1.24369184849285
  H   0.02629523604566     -4.87430729038970     -0.66842399513493
  H   0.88480434352405     -5.28571028713209     -2.14938128629516
  H   -1.05989264267581     -3.90064561330230     -2.69394829055254
  H   0.40363357267318     -3.03383453372631     -3.10030718298353
  H   -1.69648660514477     -2.08044338286591     -1.42984353831496
  H   -0.37419963949588     -2.40181683133245     -0.34005481948162
  H   -0.47312488781180      0.01433019274595      0.13394775048088
  H   0.16241086047328      1.14790938551442     -1.10426775927813
  H   2.63313561239149      1.25306852750774     -1.58890045000861
  H   4.80761188518881      0.11504393049514     -1.51713126129852
