28
Coordinates from ORCA-job 15559optt
  Br  1.06795948983713      0.28188190313813     -0.03525516484885
  C   2.95842355813086      0.15349971590833      0.05758461614368
  C   3.56784153283332     -0.98198726892487     -0.41461357681581
  N   2.82172166382071     -2.05869801055286     -0.94286711162591
  C   2.54307230250173     -3.29013231396537     -0.38038767233345
  O   1.65810007911396     -3.98761001860512     -0.85450622224713
  N   3.28685184246348     -3.74053816395901      0.67316125175044
  C   4.38481372788906     -3.13393657224853      1.41008303745854
  C   5.70380653286400     -3.15240851130263      0.64745914311226
  C   5.56485355096697     -2.36846097037292     -0.66035548773498
  N   4.92345563661484     -1.08721571487703     -0.43904134739888
  C   5.69549351104014     -0.11339187375295      0.20346663940965
  C   5.13830958604202      1.16875241088071      0.47494234067437
  C   5.96136527629590      2.23005635998777      0.86042337490639
  C   6.66330802634537      3.15823169804264      1.21432469514000
  C   3.69780571765511      1.35436422229671      0.46792336516171
  N   3.05126162433195      2.42713437892463      0.77737198893690
  H   2.03629635617629     -1.76871646853786     -1.50975036577570
  H   3.00627163017153     -4.67160640781950      0.92992426473010
  H   4.48139218884788     -3.69734146708159      2.33835224681981
  H   4.14207186787986     -2.10705475064418      1.69187113883845
  H   6.00431044990895     -4.18132080540388      0.43061381033181
  H   6.47065108726510     -2.68801229159822      1.27056687575906
  H   4.98136122084081     -2.93308398885588     -1.38459604609684
  H   6.54637518289121     -2.17548763150404     -1.09746056521731
  H   6.76173841381640     -0.23973857152497      0.07791710329553
  H   7.27686552320509      3.98387376111262      1.47626770167507
  H   3.72422242025013      3.14494735123992      1.04357996595107
