25
Coordinates from ORCA-job 15561optt
  Br  1.65656922563623      1.31259142564790     -1.47755485668266
  C   2.40254241308395     -0.14699763965070     -0.47776050068497
  C   2.39686749679937     -1.40913301398118     -1.03044934162465
  N   1.70007772619685     -1.68678590061928     -2.23266630869983
  C   0.56642836892434     -2.47136922869781     -2.36458090535828
  O   -0.08127655107689     -2.47680551767907     -3.39478617288440
  N   0.35464264573852     -3.31598963353429     -1.28802891436029
  C   0.10807098739473     -2.91142721431415     -0.10770139802470
  C   0.58804604207084     -3.68815741553390      1.01532171016117
  C   0.87240644195901     -3.07845866526315      2.18250393813375
  N   2.03155393302416     -3.39657866105607      2.88898804047415
  C   3.20358611444818     -3.37951405810812      2.00519277738244
  C   3.27867312897484     -2.24615010759766      1.10380268577015
  C   3.22566041098822     -0.94324962737202      1.59497741494492
  C   2.87563692037902      0.13971986715299      0.80550623133352
  C   3.05863522382796     -2.51053892818375     -0.31826800706537
  O   3.24558004362905     -3.61535191262997     -0.84158206266641
  H   1.83818275291100     -1.07618451559185     -3.02351224449543
  H   -0.25888536472598     -1.89781527527785      0.09751686545810
  H   1.17469737397939     -4.55199687065415      0.72070624192641
  H   0.31292136039872     -2.20218578167811      2.50517212930085
  H   2.15186501988347     -2.83353865557471      3.71847981318209
  H   3.52809952674489     -4.35205328003039      1.66418465196960
  H   3.45409246077029     -0.77426186091167      2.64412609781319
  H   2.89732629803969      1.15423247113912      1.17341211469664
