22
Coordinates from ORCA-job 15560optt
  Br  0.99978986499183     -0.99493646651680     -1.20495907511397
  C   2.65675264726253     -0.41467185742290     -0.56381375536229
  C   2.96046958631161      0.92230803762337     -0.48299839679458
  N   2.01358015175151      1.89581093378108     -0.92019511090632
  C   1.51204511535460      2.59022870687183      0.25824434348750
  O   0.59674289138302      2.13557068568400      0.89094684725563
  N   2.15584874703937      3.77574755238517      0.52816598683527
  C   3.44939803999953      3.83268409216845      0.38247598609351
  C   4.42627861451922      2.81035016806654      0.16663249148102
  C   5.75059643633640      3.34009687192975      0.17010379291008
  N   6.79948633301381      3.82090450572842      0.17176488628081
  C   4.20523552429171      1.40535480061590      0.01163143968076
  C   5.22584939306384      0.41136714313753      0.37736285485540
  N   6.39114517006189      0.57083978706297      0.88187125591552
  N   4.85391897776670     -0.91377193158517      0.17348410739331
  C   3.63268315344845     -1.43085301774749     -0.20977070123380
  N   3.37677069580741     -2.68697629654506     -0.27939137389413
  H   2.52557991388119      2.57323762132906     -1.47767646975682
  H   3.88063009144310      4.82603974378980      0.49621432947278
  H   6.63745309211017      1.54345536656196      1.00963405002558
  H   5.56679670643715     -1.56622690553769      0.46506985694302
  H   4.19194885372491     -3.23255954138076     -0.00479734556828
