20
Coordinates from ORCA-job 15568optt
  Br  3.39191193718270      0.61062502591500      3.18304031744207
  C   3.55071996509324      0.44782829788530      1.31094342138160
  C   3.04036336512016      1.39329146758671      0.47078268067276
  N   2.18025100971076      2.40613352865644      0.91853242653670
  C   0.81967347581991      2.03705565934741      1.06138392422387
  O   0.50195017742629      0.94138995940779      1.45046261519373
  N   -0.06457319199999      3.05777128489538      0.79731977314512
  C   0.10000988520846      3.83731863115249     -0.25428992238290
  C   0.87732595685387      3.76234620318655     -1.45728695926844
  N   1.61308046734278      2.85273384311836     -2.04212993161424
  C   2.35180250641451      1.75684174127258     -1.92730378032529
  C   3.16906866029622      1.23345071960660     -0.93409365574885
  S   4.47936215687874      0.17873050163330     -1.43190963332496
  N   4.30872281966222     -1.11950710604187     -0.23547748240765
  N   3.93527546981597     -0.81843478498971      0.90012194769677
  C   -0.75969428602474      5.01034416029480     -0.25700746329125
  N   -1.42534919192059      5.94730800711067     -0.27058088245898
  H   2.29940238683814      3.27055311209542      0.41192234204155
  H   0.72978839237836      4.65161540399463     -2.06984035442072
  H   2.47290803790295      1.23860434387211     -2.88158938309089
