25
Coordinates from ORCA-job 15563optt
  Br  2.39978853293516     -1.48813346880265      2.62242487259659
  C   2.86222651089877     -0.51013043664906      0.51199908016204
  C   2.52611016664783      0.79646097442293      0.27654578487775
  N   1.27732100214794      1.32553202052323      0.66795890160277
  C   0.33775209226288      1.66511134056846     -0.27093610300411
  O   0.09605792911744      1.04210378921423     -1.27983142629288
  N   -0.38961464837711      2.79818215710745      0.08589971235986
  C   0.18214459333734      3.87883044666843      0.78303158228800
  C   1.43322717943461      4.31087045310645      0.65314446947374
  C   2.44610777083839      4.11491361514404     -0.45879704166337
  O   2.60336065117762      5.16552044660684     -1.08740151278168
  C   3.29686191352124      2.99974582042924     -0.75849790124180
  C   3.42610857203210      1.66569100136301     -0.38902911921207
  N   4.61732634139251      1.06731111567418     -0.79072379885479
  C   5.01030610689285     -0.23449844282062     -0.57099598805064
  N   6.12410129330774     -0.76188232241323     -0.91542687575427
  N   4.06084239877584     -0.97926076553798      0.08964649277128
  H   1.29104098413404      1.89911357323611      1.49591855230825
  H   -1.18263647874888      2.97123612499143     -0.51203074070599
  H   -0.47259441693121      4.35335687309242      1.50712182158282
  H   1.72978759245284      5.12837230683090      1.30049666772670
  H   4.05700162623510      3.33642723459214     -1.45812442485386
  H   5.29292306913933      1.66198541946373     -1.24172284086778
  H   6.71773656534162     -0.09238781358256     -1.39426307789985
  H   4.33071265203387     -1.92347146322920      0.32359291343330
