24
Coordinates from ORCA-job 15576optt
  Br  2.53361040285811     -0.93336735591215      2.78208974780887
  C   3.21142980698708      0.12632977404883      1.32579623893358
  C   3.52808497351606      1.47135923173563      1.57048615970389
  N   2.81287852403517      2.28604089787545      2.51978095639680
  C   1.59977674758638      2.66832502285521      1.82712180161827
  O   0.54103790047103      2.13911971924146      2.04555235834726
  N   1.77046579694086      3.63564967248572      0.85338868495964
  C   0.90059737164442      3.62521753094248     -0.30611164211170
  C   1.50446324901015      2.84177552917902     -1.46893661024484
  N   1.72876885202709      3.27506760210698     -2.63958731952763
  O   1.77410994483761      1.59344120829002     -1.09309914330691
  C   2.72538386679133      0.76877486464273     -1.83791182044026
  C   3.74541865854977      0.34684224324211     -0.83623187146144
  O   4.63149036442290      1.37529204631669     -0.52310837109017
  C   4.30843315487873      2.12827376574469      0.58730102594830
  O   4.70218407185716      3.28929966918017      0.63017220552989
  N   3.29858612482736     -0.45846361054611      0.17565462566460
  H   3.37981789622066      3.10780522629472      2.71006128552524
  H   2.73975496716746      3.87412534996625      0.66818675963815
  H   -0.03251987819768      3.14856501685315     -0.00384675268400
  H   0.68792443214199      4.64164678681038     -0.64116823074208
  H   1.47371510403678      4.25569343252114     -2.70033530981601
  H   2.17224119447559     -0.08577316262091     -2.22116741435015
  H   3.14534647291394      1.36595953874628     -2.64308736429931
