21
Coordinates from ORCA-job 15584optt
  Br  0.99785648614316     -1.37089313331572      1.30745314937582
  C   2.30325062363812     -0.34561839425730      0.40027057432753
  C   2.22659654206170      1.03227134153950      0.42145568878095
  N   1.22174787775304      1.73324962885789      1.16676312950198
  C   0.32521579263943      2.40707593778985      0.26945891675827
  O   -0.78038021511698      2.00221331468657      0.00766190793565
  N   0.85737643407336      3.54070598474947     -0.26964337321246
  C   2.22363962335431      3.93646298665812     -0.21424247630662
  N   3.27616052509998      3.13054329153615     -0.34388325235332
  C   3.22293836357888      1.79339449210884     -0.25745032464556
  C   4.29533536726643      1.03445129454761     -0.81149039103232
  N   4.35507875502585     -0.26972731933989     -0.82799951622331
  C   3.36428881455160     -0.99111563560031     -0.25638182226927
  C   3.46772229406531     -2.41143558503307     -0.32937358297025
  C   3.56527766707591     -3.60800169340174     -0.39935597209143
  C   2.41462558348812      5.33462213258807     -0.21097287356865
  N   2.52050695417850      6.48873017040585     -0.22370582476448
  H   1.70465685021467      2.44791082141139      1.70890739682761
  H   0.23222625761285      4.06747059370382     -0.86453521745978
  H   5.10808035530433      1.58295425589385     -1.27699693305458
  H   3.64679904799140     -4.66526448552896     -0.45993920355575
