23
Coordinates from ORCA-job 15598optt
  Br  1.00798062219079     -0.01865007784992     -0.01302826403439
  C   2.90516693869168      0.18389466491310      0.01527874013124
  C   3.44988728586995      1.45075667773631      0.18437822370438
  N   2.63396350209641      2.57300085164975      0.41127979845855
  C   2.83920160246181      3.88238149586006      0.10606404670294
  O   2.08715017893235      4.75107559640572      0.49184970002859
  N   3.92512396098464      4.20743888898012     -0.74490019771050
  C   5.06784443142114      3.72772837457457     -0.54427283310435
  O   5.41569545882090      2.84012533732242      0.42070738534682
  C   4.85263417956529      1.56406523857428      0.21903079169154
  C   5.68869984381284      0.47958173385065      0.08253841664882
  C   5.12629548952542     -0.77983621013626     -0.06740773139507
  C   3.70292244131217     -0.94919246955794     -0.10455816927311
  C   3.42860999373423     -2.33857230272045     -0.26816816993194
  C   4.63942627569535     -3.00699249242080     -0.32601649778431
  C   5.74288835227529     -2.08663026618359     -0.20648636200989
  N   7.05060524597983     -2.28462649951431     -0.20951009313024
  H   1.74943064343545      2.40616167880879      0.87029626701095
  H   5.90647780464590      4.04018179664700     -1.16485366946425
  H   6.76302069342424      0.61087396729312      0.11373602676976
  H   2.44141874634788     -2.77100577186237     -0.33221623012880
  H   4.76389474850683     -4.07560612297885     -0.44508976343578
  H   7.22966156026955     -3.28315408939141     -0.31665141509095
