22
Coordinates from ORCA-job 15593optt
  Br  3.50050412414376      1.06042879879315      3.26341175046397
  C   3.91682523136779      0.80467883867566      1.39042118349355
  C   3.69650950967947      1.82899015018217      0.49781984263036
  N   3.45985219590617      3.15059478979828      0.93486977981140
  C   2.52948935239802      4.06529928317838      0.54336241331550
  O   2.55960021675806      5.20472246097417      0.97908988238129
  N   1.56601788423117      3.77560188398696     -0.43042073750217
  C   0.99143193915515      2.63861031452320     -0.98134701507829
  N   0.46040487832258      2.71189153219319     -2.12939999587957
  C   0.84211057947452      1.42813940360767     -0.08358687186274
  O   0.80043263049274      1.52215723201882      1.10738047877503
  O   0.69640201756432      0.26731972043225     -0.77353733596427
  C   1.59678400762227     -0.70954814406386     -0.25572280724682
  C   2.89285770472223     -0.49481978345745     -0.50713324174657
  S   4.13232482865272     -0.81833018976878      0.80358294315292
  N   3.29768246159027      0.43145736923758     -1.43418857820953
  C   3.67970628002907      1.57520405100875     -0.90829734870537
  H   3.95839609431844      3.47131112008684      1.75214103633571
  H   1.24061860699243      4.62858815599475     -0.86113842249345
  H   0.05068370818061      1.81011277035371     -2.36353287624677
  H   1.18375783797283     -1.38959933876780      0.47078821948944
  H   3.93760791042533      2.38818958101233     -1.58156229891361
