22
Coordinates from ORCA-job 15595optt
  Br  1.11147179217592      1.46572861430964     -1.99596006957238
  C   2.54093229479004      0.64740822105236     -1.05190281977389
  C   2.53462796819254     -0.71338542862925     -0.85058681403525
  N   1.46369742737859     -1.53346450484062     -1.33352857025156
  C   0.75529954464083     -2.08026020255292     -0.21543679241479
  O   -0.27073785331287     -1.61981592601931      0.21589144495864
  N   1.36657977848286     -3.18427729482155      0.30417187101871
  C   2.71700483351832     -3.59584357621435      0.01646882643108
  N   2.97628710359628     -4.84409324284353     -0.13672701627714
  N   3.71012810656625     -2.67263126943216      0.05320144169330
  C   3.62195805392368     -1.37259360805909     -0.15259860344102
  C   4.69302066663745     -0.51045054254930      0.28109068628317
  N   5.81866933943077     -0.80289082791775      0.93011869990871
  C   6.40051120167232      0.42505151416389      1.07659838377849
  N   5.76436957845949      1.47572933004324      0.59416987972677
  C   4.63290212161890      0.90454704199822      0.05790985671066
  C   3.57603850682963      1.48981753024240     -0.59732411266447
  H   1.86340112453787     -2.29684819015209     -1.87412515943089
  H   0.87690028386789     -3.66545265031880      1.04360885867451
  H   2.10480940021558     -5.36845116721290     -0.14557979953231
  H   7.35685488551633      0.51946693935721      1.57611932126619
  H   3.53227384126118      2.55570924039670     -0.77257951305652
