24
Coordinates from ORCA-job 15596optt
  Br  1.45595249329759      0.14834792698147     -2.46093114921759
  C   2.77932557284626      0.48835616930414     -1.14112277454319
  C   3.67527456190384      1.47886121716426     -1.19366102505967
  N   3.37742408805950      2.66180885884934     -1.88500520500271
  C   2.32841881549298      3.47962180676592     -1.48429795084753
  O   2.01987593911898      4.47136229712493     -2.08673554623106
  N   1.69755127430735      3.05799822168984     -0.27211903258382
  C   0.43002297506794      2.47788165926238     -0.27973437918753
  N   -0.45312381270829      2.84989422142062     -1.11839127906913
  N   0.26701071726571      1.43139054436133      0.63897945343021
  C   0.94989864939091      1.25057258917284      1.87490747264545
  C   2.24085394288238      0.83821630382272      2.03796873711182
  C   3.18960707083915      0.38720876770178      1.08666942186256
  O   2.67188542791646     -0.28965023542919     -0.05995122266743
  N   4.42846192861224      0.88093365990343      1.01693822785483
  C   4.78027583690121      1.42114073064239     -0.17847695900236
  N   5.91124079280241      1.94883325917005     -0.51398243750170
  H   4.08691488772176      3.11450359824643     -2.44104323417623
  H   2.33031745618721      2.59151065723114      0.36374085973208
  H   -1.29616006258106      2.29155915555901     -1.01950288400869
  H   -0.68760528841294      1.10707019948637      0.63851031918407
  H   0.39269246362731      1.55311191834654      2.75575254602579
  H   2.66984613717375      1.01948671705056      3.01869234266566
  H   6.54803813228731      1.86697975617164      0.27779569858617
