21
Coordinates from ORCA-job 155optt
  C   -3.78550521716509      0.78472276781935     -0.00266769671524
  C   -3.18137615247384      2.03918912952567     -0.00013439219188
  C   -1.79897547330638      2.20479348017850      0.00097255454269
  C   -0.97788873477206      1.04426961476620     -0.00052171338023
  C   -1.62614060146025     -0.21612176548416     -0.00309059695536
  C   -2.98258895031141     -0.39031671898031     -0.00423921713421
  C   0.40774391520301      0.77576625504708     -0.00015459695718
  O   -0.69971515258126     -1.23169074315509     -0.00433030111730
  C   0.53915320825226     -0.63553282164354     -0.00248647689380
  C   1.60299357890062      1.54506884219912      0.00187722139937
  C   2.82407667953635      0.87631156444575      0.00161023710897
  C   2.91693874888950     -0.51287117935950     -0.00065166252011
  C   1.73323923047543     -1.30277127082986     -0.00280134534119
  H   3.73961949433408      1.45953155078533      0.00318556069505
  H   1.56484395779996      2.62710164316404      0.00375708903644
  H   -1.35894563388805      3.19395640263064      0.00307557899334
  H   -3.81302448692545      2.92200442635374      0.00100354475528
  H   -4.86452057991380      0.70043661741676     -0.00351684805955
  H   -3.41476735730514     -1.38241931666814     -0.00638232860751
  H   1.76375343133984     -2.38472336671127     -0.00466363968598
  H   3.88608609537168     -0.99470511150032     -0.00084097097161
