22
Coordinates from ORCA-job 15604opt
  Br  1.47036942539535      0.38077882001860     -0.31594280201006
  C   3.01742299804424     -0.70226420814393     -0.24206938568581
  C   3.02434656590502     -1.91612764085777      0.31709575249650
  N   1.99975720959887     -2.57322111768467      0.92190052716526
  C   2.07782725186038     -3.88990988884775      1.49476159477500
  O   1.08279059187053     -4.21930642285934      2.13255496746581
  N   3.18117824584726     -4.61389684377005      1.31564162385455
  C   4.17239704052773     -4.15853164741917      0.48399521954954
  O   3.98856294744476     -4.70928162147775     -0.94441277970532
  C   5.04967314945160     -4.57491455128326     -1.71766957081301
  N   5.55860306840092     -5.42593705228515     -2.49369412536097
  O   5.64766853042534     -3.32633234346157     -1.69386244570446
  C   5.03114663805927     -2.35436517724801     -1.00566510882674
  C   4.33905704112653     -2.65283012969070      0.27975943053260
  C   5.09073374749921     -1.00002897547668     -1.51837674622199
  O   5.87205823626817     -0.57485450398178     -2.35465823608493
  N   4.15347823479497     -0.18598755850677     -0.90159655760920
  H   1.11852012967916     -2.10954637893270      1.07637265433467
  H   5.14087458368104     -4.58678494891137      0.76521105883095
  H   5.04222186086118     -6.29415025195283     -2.38347346028325
  H   4.95029756347462     -2.28442944941273      1.11852516175933
  H   4.14501493978341      0.77392189218563     -1.20539677245843
