20
Coordinates from ORCA-job 15600optt
  Br  1.59407163409602     -1.26170696785837     -2.23528293321498
  C   2.63564028970544     -0.42497427271994     -0.91436508039699
  C   2.44600936626497      0.90953999916829     -0.62437865629710
  N   1.45034937630113      1.72877718102687     -1.24813174223469
  C   0.52317011061365      2.09348163481765     -0.21536202667278
  O   -0.43972655327734      1.44208285001713      0.05984895211340
  N   0.83974310728371      3.29709122022542      0.44115229024404
  C   2.04294229769679      3.55002189294881      0.75585003700216
  O   3.15537079585753      2.82866298095227      0.71143395174431
  C   3.26095626779414      1.45733901765680      0.39308081703781
  N   4.20852678938139      0.87074077811438      1.04492974449082
  C   4.46507976577134     -0.45572277055043      0.78417444422289
  N   5.38945567758689     -1.11325840946613      1.39271732435025
  C   3.64893721060721     -1.19862487621709     -0.24671926598065
  N   3.86193493647868     -2.43915816661170     -0.52019272680527
  C   2.33627272223309      4.87762313766895      1.28688634654830
  N   2.54640164229530      5.92839754194525      1.69203101578107
  H   1.88012271877337      2.55771756795524     -1.64524777250186
  H   5.84713591837708     -0.48438313400568      2.04972795441716
  H   4.63060592615957     -2.74864720506774      0.07784732615211
