21
Coordinates from ORCA-job 15602optt
  Br  1.81900372152183     -1.47551033412472      1.96008425390305
  C   3.09375282980145     -0.34370970276782      1.11494063603330
  C   2.68166128407792      0.72446171301136      0.42124902913656
  N   1.34082777713096      1.12264238271219      0.38280760052957
  C   0.76037290324296      1.78388676229965     -0.68691760875386
  O   0.98259721414573      1.55483750491931     -1.84049438885582
  N   -0.18641297089378      2.74080235897321     -0.22163279801457
  C   0.25714417765427      3.63364956373528      0.54919501841870
  O   1.53517184808516      3.86799031251019      0.91127388159849
  C   2.56374689518567      3.85022610461714     -0.05160114821080
  C   3.40334435195534      2.88886754431443     -0.45564465934271
  N   3.60347800258488      1.55046248543440     -0.22699231383134
  C   4.77411530256582      0.97404302937196     -0.92542116943350
  O   5.16706220421229      1.54125051200472     -1.94407424713218
  C   5.42208494820731     -0.15089698482797     -0.32401932301624
  O   6.42370922326939     -0.72463123112884     -0.74462223325160
  S   4.76656603976948     -0.76098910179921      1.28910175607546
  H   0.92056366408996      1.28994486066385      1.28360173818400
  H   -0.42659566089772      4.31019299067045      1.05727236363005
  H   2.70752136190162      4.83706117111613     -0.46717673478082
  H   4.12328488238932      3.24641805829419     -1.18192965288576
