22
Coordinates from ORCA-job 15617optt
  Br  0.53572473240500      0.46980030823726     -0.27679930477290
  C   3.01439949341910     -0.12174802802738     -0.04902525966439
  C   3.74094203012173      1.01532482804587     -0.05119659859942
  N   3.36583422647317      2.35921614506252     -0.06096334258744
  C   4.46058600658337      3.16057070923695     -0.06664485832862
  O   4.55143272416554      4.35546258915636     -0.07999592388453
  O   5.57721634702354      2.32979674027897     -0.05085845396718
  C   5.14938276827689      1.02982492547055     -0.04563919237156
  C   5.89637043879946     -0.10532242042871     -0.04179854341654
  C   5.15892769229683     -1.31133308355804     -0.04440431556429
  N   5.59210106007534     -2.57254564635279     -0.04220800790988
  C   4.46826029393163     -3.31359728826362     -0.04718840594038
  O   4.47956576254248     -4.68590165434781     -0.04731259801018
  C   5.66857595022550     -5.32953043339231     -0.05002367828203
  N   5.76348803384218     -6.58426238999307     -0.05001761160850
  C   3.32062448235337     -2.57448971201854     -0.05117283614582
  N   3.76203947803683     -1.26500643211783     -0.04940026593726
  H   2.40898803201036      2.67642634350491     -0.10251009791751
  H   6.97477659668768     -0.12146895499585     -0.03989353246389
  H   6.53516264231515     -4.67694772487417     -0.05195057005060
  H   4.83384141257712     -7.00619400429105     -0.04786211215786
  H   2.27575979583759     -2.82107481633218     -0.05813449041919
