19
Coordinates from ORCA-job 15610optt
  Br  0.98268130139943     -0.23508340393060     -0.30208103836401
  C   2.86629937681653     -0.09631688287654     -0.26503117601544
  C   3.61338051575433     -1.08183982402433      0.34569971227082
  N   3.06657797330541     -2.15931258316098      0.96085820371550
  C   3.82875173337689     -3.30453069323107      1.35058588746065
  O   3.19179461322832     -4.29965572596867      1.67006899591156
  N   5.16502129434919     -3.18915363188250      1.35514923103369
  N   5.79025692277002     -2.08902426610194      0.98852741623777
  N   4.96859224372443     -1.07555027317640      0.38520661728111
  C   5.65121946051989     -0.05507138482265     -0.20061717077865
  C   5.11730823962470      1.03086482911564     -0.80890425895904
  O   6.08889128105390      1.81866830610794     -1.29646920476182
  N   7.29773598002071      1.24402685753852     -1.00013316016111
  C   7.05391077609159      0.14289624814851     -0.35542109357100
  S   3.42036978591033      1.39744807665740     -0.94333533990413
  O   3.05377775715477      1.52162562926870     -2.32916802073878
  O   3.08630015373031      2.51406221699169     -0.09884445108895
  H   2.07001818341902     -2.29855076949096      0.91492782860775
  H   7.85411240775016     -0.49250272516175     -0.01601897817594
