23
Coordinates from ORCA-job 15618optt
  Br  0.96658277352536     -0.12078859766685      1.00860754343034
  C   3.01967912112991      0.07281745928730     -0.18397286257822
  C   3.73464949736129     -1.09491389442887     -0.11388642256815
  N   3.33221361703971     -2.43828211279311     -0.06996549622448
  C   4.40998209345267     -3.24267812197950      0.03006810472754
  O   4.51533612493053     -4.43210870077779      0.12024718353136
  O   5.53213875454656     -2.40062082594999     -0.00007090962553
  C   5.11334666467583     -1.09654927522332     -0.05387359563634
  C   5.90430236496316      0.04622579940886     -0.02658504301332
  C   7.35681690321415      0.05681392080556      0.01806634304669
  O   8.03785542927170      1.07209465982175      0.03751859260683
  N   7.99222276641192     -1.19108933740574      0.03462688868770
  C   9.36162657967224     -1.32007909675855      0.06239122580273
  N   10.02452710067216     -2.40365443100809      0.07725851730832
  C   5.16614508166761      1.31705504719902     -0.04604418648600
  N   5.59937154890951      2.51706272024119     -0.01518974877146
  N   3.75239575055565      1.18832419501778     -0.13482701136979
  H   2.38657863961305     -2.74311234462414      0.09548264144278
  H   7.43041468214686     -2.02953268706193      0.02969351252929
  H   9.87457589421209     -0.36381556210436      0.07058032358800
  H   9.40643882855735     -3.21653982890157      0.06720399336612
  H   6.61264250740505      2.51326836508151      0.03268314965220
  H   3.29015727606520      2.08710264982089     -0.17801274344661
