19
Coordinates from ORCA-job 15615optt
  Br  1.43654025188600      0.11547651524904     -1.20838579917226
  C   3.05840808356573     -0.10098258661586     -0.28034322846553
  C   3.54173946139221     -1.35098631441796      0.10759971935723
  N   4.95578215651651     -1.39084901254733      0.42106581274074
  C   5.60866936300472     -0.27072734059578      0.90619204751180
  O   6.70619695055004     -0.28111411070274      1.39485405244009
  O   4.93040728363737      0.88262815031410      0.81052120646804
  C   3.80824732995351      1.07362066512556     -0.03335271560681
  N   3.56454029179970      2.26393673372498     -0.41743164729668
  C   5.68443622036178     -2.55177179639491      0.14541620888425
  O   6.97724444661899     -2.30244403430958     -0.27224726405480
  C   7.99083619085868     -2.60417577517058      0.57237107627563
  O   7.90560257871041     -3.18319978171411      1.60323161780359
  N   5.25854632194681     -3.72873452579249      0.13607450753694
  S   3.67808094036903     -4.06385280455481      0.60368646246141
  C   2.76755727438206     -2.52001018937576      0.31449450826670
  O   1.55036338409559     -2.63686782178620      0.29052613163336
  H   4.27438714073655      2.88976677467371     -0.04568686860591
  H   8.92041432961428     -2.22871274510925      0.13041417182220
