20
Coordinates from ORCA-job 15620optt
  Br  0.89552836795098     -0.62715152920362     -0.41361632303017
  C   2.67173163580349     -0.12482815958133     -0.03784421194206
  C   3.66099432532993     -1.01825672619888     -0.07130775826888
  N   3.64416403689633     -2.37834097083235     -0.32438795569041
  C   4.90604001543406     -2.91737589330950     -0.19740848658749
  O   5.22847121256064     -4.06043703802945     -0.31419221579146
  O   5.75431271875171     -1.89832104017340      0.10665224750687
  C   5.04992098447648     -0.71934433900907      0.17219620304025
  C   5.57301472144219      0.49381696019486      0.42388019551838
  O   6.86233388462834      0.75241007341092      0.59571537484074
  C   7.76022071768772      0.42890635069022     -0.51562320012775
  O   7.27975112328326     -0.08457461056030     -1.51583659125201
  C   9.09022984794172      0.82964459040757     -0.21746498722005
  O   9.48454409834946      1.36852326295148      0.84153920321153
  C   4.70154783354334      1.68374095985766      0.54013158542466
  N   5.11496572193584      2.85339584302104      0.78591508339560
  S   2.93149190745711      1.55023966734809      0.34759857195394
  H   2.83160216560412     -2.93845059620497     -0.51205251650928
  H   9.77534292885457      0.62337525530604     -1.05527220444013
  H   6.13179175206856      2.82902793991498      0.89237798596773
