20
Coordinates from ORCA-job 15622optt
  Br  1.08773017494491      0.07547017718469      0.08086625639740
  C   2.96233075755959      0.07926290097082      0.06542120304970
  C   3.68284668032056     -1.12890480724480      0.05861334469857
  N   3.32823844530817     -2.47511527357266      0.05555241218680
  C   4.45211283104371     -3.25217664951628      0.04878383103105
  O   4.54687244801101     -4.45226239645445      0.04510069409095
  O   5.52742439036321     -2.40040008685963      0.04704093764584
  C   5.05439752618396     -1.10489242865192      0.05290587391358
  N   5.84598673245378     -0.06136608458904      0.05242562935590
  N   5.09232420323538      1.10675057772226      0.05693157270615
  C   3.72265363212808      1.24981391739340      0.06368060599542
  N   3.12865439138079      2.45519007729470      0.06774969144890
  C   3.82130930953895      3.57260933791461      0.06731184396666
  N   5.13048710237513      3.84049552988513      0.06588721563545
  C   5.15458060640433      5.19402748585781      0.06698129307468
  N   4.00201432351270      5.78515057997724      0.06878832794557
  O   3.10354784809432      4.72416325886551      0.06889105223140
  H   2.39839539595662     -2.85491213029674      0.05734964365501
  H   5.63579278570775      1.96102289465074      0.05705652298191
  H   6.06730041547701      5.77207311946859      0.06666204798904
