23
Coordinates from ORCA-job 15633optt
  Br  1.02280235681808      0.01981596640334      0.27554447392368
  C   2.91267649141728     -0.10228754774952      0.15448428023385
  C   3.67438742814909      1.04537190987898      0.07479595464567
  N   3.13580524266340      2.33805105708162      0.07739850609805
  C   3.85043600127239      3.49642420016459     -0.00126092639414
  O   3.34104578591242      4.59168088712406      0.00728975757829
  O   5.18431825518446      3.37256107882220     -0.09246720242125
  C   5.80506911229538      2.12184851481459     -0.10595744318650
  C   5.08110036903506      0.95190871276795     -0.02285496695766
  N   5.70326858604311     -0.26670563039966     -0.03261986611377
  C   4.96520384312548     -1.33798693734749      0.06116225107431
  N   5.56635555973299     -2.57293514861066      0.09945501964206
  C   6.93894677619601     -2.68846441105022     -0.31987653376154
  C   7.41093558027636     -4.06995151289221     -0.23509481233278
  C   7.80200210199855     -5.20068687819372     -0.17304708699418
  C   3.49879182279663     -1.39386903014429      0.13740923598851
  O   2.90564287081823     -2.49956406583704      0.16792590998740
  H   2.13568041463483      2.44948353141749      0.14418805231653
  H   6.87556439249461      2.19053064108147     -0.17955205436173
  H   4.91993444831725     -3.33231492796854     -0.07017424530691
  H   7.55787112448120     -2.05173814857214      0.31629987018408
  H   7.08680945166554     -2.31873383003073     -1.34382951335262
  H   8.14335198467152     -6.20543843076009     -0.11621866048937
