23
Coordinates from ORCA-job 15632optt
  Br  1.11990187556328     -0.15893064779886      0.23957907934289
  C   2.98664925341234     -0.11613551643012     -0.02279095493262
  C   3.67652732134704     -1.26679625679041     -0.19705460203050
  N   3.10677165055152     -2.53847060388338     -0.18976092906785
  C   3.80972705954466     -3.69002892328665      0.10072544382759
  O   3.26748718095843     -4.71561189743314      0.41745996590375
  O   5.14568628163036     -3.61001739537941      0.01754531905562
  C   5.72047005893976     -2.52883220884722     -0.73933880698662
  C   5.08345075968529     -1.23019221648947     -0.39769143521631
  C   5.70603404621052     -0.03124703048882     -0.34376473541519
  N   5.04282425051407      1.13298781020507     -0.15768981166014
  C   5.84477843110283      2.36471445376321     -0.06556304197100
  O   5.47487384207006      3.37265795988211     -0.69329384966903
  C   7.00174606631390      2.28567632349895      0.76852460507403
  O   7.39373449442440      1.29599554501870      1.42393019182745
  C   3.63216758053080      1.19752769964328     -0.01025369879582
  N   2.95550079461228      2.26326751997478      0.15066791749043
  H   2.11353111194859     -2.60838274354022     -0.01834046912372
  H   5.58610669534462     -2.78162093323257     -1.79702245745880
  H   6.78315331173870     -2.53448223904295     -0.50795170234006
  H   6.77588727135864      0.06484615019106     -0.45692978270599
  H   7.55916827697941      3.23649292662520      0.77961271233913
  H   3.55582238521841      3.08058222384087      0.07940104251276
