24
Coordinates from ORCA-job 15639optt
  Br  0.54301099853970     -0.34566538624526     -2.13487834461614
  C   1.90276959169685     -0.71040641583068     -0.83880811490709
  C   2.86397330267092     -1.64867283494982     -1.11783361079360
  N   2.69699810470552     -2.61692645723564     -2.14794041273573
  C   2.24444406877118     -3.88451676741875     -1.88000140854163
  O   2.47867321838341     -4.83945401560587     -2.56881530353066
  O   1.48445311298194     -4.03771003805030     -0.73959433141649
  C   0.38707808265886     -3.22176852406645     -0.55405624093414
  C   0.28253344221165     -2.41492871648203      0.49795353751163
  C   -0.75488717822044     -1.40397645456945      0.64070399701584
  N   -0.53748401953743     -0.15607873183091      1.03351101397464
  C   0.66078248712177      0.41263636433386      1.05358188803162
  C   1.86724297408965     -0.01213502496534      0.38524474330880
  C   3.07752221232843     -0.02827267783988      1.12408689709514
  C   4.14244553809148     -0.81424169906422      0.78797201410731
  C   4.07063145699066     -1.75031478950156     -0.30749401755078
  O   4.95650588656420     -2.58124000749137     -0.57803415670357
  H   3.44361841351554     -2.66456754224718     -2.82934729779201
  H   -0.34214080614661     -3.25570014307045     -1.35701720722767
  H   1.13233895953184     -2.37073340106192      1.17406297530665
  H   -1.78255772104918     -1.66651003047798      0.41219202461310
  H   0.74917626523017      1.27247775264320      1.71560658749525
  H   3.10833457109691      0.55756600680548      2.03868613872069
  H   5.04353703777296     -0.82886046577746      1.38821862956883
