23
Coordinates from ORCA-job 15638optt
  Br  1.15616387811665      0.12739216885061     -1.21669661426009
  C   2.99533324465177     -0.04614915082408      0.30763737980998
  C   3.77170952274010     -1.15786110389353      0.06409769562928
  N   3.06660258220480     -2.34370537135648     -0.25638157406527
  C   3.42341237296441     -3.64271693268928     -0.31341529068115
  O   2.64501269609178     -4.55666811943538     -0.40685104468275
  O   4.76455308029341     -3.91751483166968     -0.24275245969300
  C   5.72248125549940     -3.08600708027197     -0.83748607392935
  C   5.37313089269804     -2.64132445580800     -2.26374515542775
  C   5.30983676274867     -3.77596538415321     -3.17634788404749
  C   5.27528407864855     -4.71798417216880     -3.91424780388032
  O   6.06445214235332     -1.99252337278910     -0.03173546458181
  C   5.16762113299808     -0.97345456351006      0.10903635549104
  C   5.71394105126593      0.26065071103742      0.35540948690172
  C   4.90116199482855      1.40028730383539      0.59050270694756
  O   5.23697048870403      2.53739023508781      0.81253591699138
  O   3.51787538450974      1.13243843830368      0.57062860489048
  H   2.07717283874308     -2.17684802126224     -0.41132387770467
  H   6.62430176567252     -3.69393410521950     -0.86085444202887
  H   6.15850642757629     -1.95243959994567     -2.58135123393020
  H   4.43125030279679     -2.08965487661317     -2.28167230293014
  H   5.22233642043076     -5.55930952268274     -4.56158468283698
  H   6.78488968346317      0.38190180717801      0.38359775801844
