26
Coordinates from ORCA-job 15641optt
  Br  1.55684308183699     -1.90687498398755      2.50937050984975
  C   2.40849924846272     -0.74492831592278      1.25991690749012
  C   2.06031457982882      0.63110332219313      1.25831824023815
  N   0.82754788029306      1.17444096320418      1.76088254014218
  C   0.02966133671859      1.67082541291308      0.75661144382344
  O   -0.22210718492252      1.11026897219966     -0.27812168847611
  O   -0.42029496256799      2.93634423004098      1.02801146114104
  C   -0.53411682426403      3.74688909569423     -0.14254788752137
  C   0.81376033227737      4.29829821676497     -0.61106542310764
  C   1.89123140614787      3.27035847101618     -0.95378326009456
  O   2.35753115476757      2.72609345251864      0.26941070925237
  C   2.75037041389730      1.40298459242501      0.28711822466866
  N   3.65727248453377      1.00907203765500     -0.54109033934261
  C   4.01479583432842     -0.33622678538886     -0.48595223164320
  C   3.38371276500518     -1.21853935772869      0.43400653192863
  C   5.00362711753532     -0.80332963364217     -1.36630986209735
  C   5.85823027814749     -1.22549068399098     -2.11932061801484
  H   0.95609507734932      1.86437988085397      2.48823428367955
  H   -1.19088478924907      4.57057982320729      0.13769139069438
  H   -1.01004393123566      3.16571315788704     -0.93299577742772
  H   0.61701620022791      4.90820159523618     -1.49870944786540
  H   1.21790666638515      4.96336246532795      0.15694015039975
  H   2.71758948557710      3.75405699092507     -1.48157747355521
  H   1.49938148771859      2.47307888287112     -1.58956718913325
  H   3.69156275557003     -2.25411790268346      0.47090521796511
  H   6.60449810563064     -1.58454389958921     -2.78337641299387
