23
Coordinates from ORCA-job 15645optt
  Br  2.28243199423087     -1.91698536394135     -1.62025164382036
  C   3.07876263235327     -0.36512683816067     -0.90647098468658
  C   2.88973160783936      0.88645567654469     -1.35673001223904
  N   1.86240485517951      1.28287462264592     -2.31147706726377
  C   0.80954218457796      1.72938434478519     -1.44541574941275
  O   -0.01550406187622      1.00144792142970     -0.98038927701437
  O   0.90899488694934      3.04115930449785     -1.13320903528679
  C   0.47214351478696      3.39999368728929      0.19370615401785
  C   1.44253600679639      4.42981096550913      0.78122376255469
  N   2.83322616124211      4.01700866144081      0.70833852632505
  C   3.18601204413111      2.88027065057736      1.47749367694003
  O   2.97906178868516      2.84430519015963      2.67677870270195
  C   3.65668544231078      1.76189956215799      0.64423085880552
  N   3.43434343350173      1.92813399672848     -0.68643120385423
  C   3.95342153304472      0.45847080221059      1.17525801819380
  O   4.31715213338037      0.09926321412590      2.25623583727843
  O   3.84872290359043     -0.58225219178841      0.17766857931621
  H   2.24140936889510      2.10773033003284     -2.77115527945962
  H   0.46434948191527      2.49685721061746      0.80504982720807
  H   -0.54422840412877      3.79687584180592      0.14531968243898
  H   1.33665476714286      5.38156731981048      0.25601277923985
  H   1.16655017318488      4.58739660106302      1.82562292726214
  H   3.06159555226677      3.81345849045815     -0.25940907924506
