23
Coordinates from ORCA-job 15642optt
  Br  1.04797565842910      0.86684528980909     -0.08689762598016
  C   2.88840031338966      0.48957804487090     -0.17721252749623
  C   3.33183167468447     -0.80875409109378     -0.33191694828472
  N   2.54000180504677     -1.88643596827731     -0.40855094684118
  C   3.06142807195355     -3.22567558839599     -0.72840465351947
  O   2.64864483451767     -3.77258840498545     -1.73547089118319
  O   3.24836010638995     -3.99466161583501      0.42308596838523
  C   4.27206342863592     -3.50841375637984      1.26336786281564
  C   5.50468593388767     -3.29948107144480      0.40183057820826
  C   5.08735596544820     -2.49001327177661     -0.80825407351774
  O   5.56558627436753     -2.61239692485078     -1.93226615227329
  N   4.66904399099539     -1.09077408473197     -0.39403813384577
  C   5.63918564258242     -0.12224849225042     -0.23157347808949
  O   6.82627009914159     -0.36328103773403     -0.19957141427168
  N   5.14794223502760      1.15587717593935     -0.08650292700162
  C   3.81058634000834      1.57052669762850     -0.04871269521524
  O   3.55718304044744      2.75383202030510      0.10148310978809
  H   1.57173546907737     -1.72843524339392     -0.65162087486763
  H   4.42275262283469     -4.25444476907330      2.04277701044862
  H   3.96354779363730     -2.56854109737342      1.73849523844282
  H   5.87758312330840     -4.25544060691916      0.03528057841800
  H   6.30206988829944     -2.77577944980663      0.93617772813825
  H   5.83876568788941      1.88170624576955      0.03249526774253
