26
Coordinates from ORCA-job 15648optt
  Br  0.97098920505107     -0.21513319552664     -0.41739186201426
  C   2.88427862562275     -0.03888871130765     -0.13717118153895
  C   3.62957511066099     -1.18013932986800     -0.07593332985047
  N   3.12449396538634     -2.47884050982544     -0.25281084847552
  C   3.79986790434069     -3.62223867952963      0.05145579010594
  O   3.27621959606634     -4.71481004454791      0.07169616507824
  O   5.11352403434594     -3.50290708175920      0.32703966435330
  C   5.82343961275656     -2.29266080258356     -0.04139740077744
  C   6.24003567380392     -2.48330216378279     -1.50388675024835
  O   7.30865898957282     -1.59270544226448     -1.75893322741391
  C   7.57077566978972     -1.46983804914981     -3.12815949060928
  C   8.79436530369488     -0.69620462332181     -3.34095907964379
  C   9.79579765321076     -0.07083872061209     -3.53732561787312
  C   5.01653298457069     -1.08225076058123      0.22232869427105
  C   5.51110273922693      0.23763984069396      0.41392051170757
  C   4.65813005046492      1.30301533963928      0.32583930647436
  N   3.32005221698032      1.21804814288149      0.03900823694312
  H   2.13492507121689     -2.59663615419791     -0.40789851913617
  H   6.73784866770799     -2.30025914174411      0.55663299124901
  H   5.38666293577037     -2.26195749986052     -2.15854130749984
  H   6.56913393302499     -3.51643772975274     -1.68107354264866
  H   6.73499295213813     -0.97258861460618     -3.63729898556568
  H   7.69565797987233     -2.45971946802350     -3.58935490167601
  H   10.68381441553550      0.49020546957863     -3.69933270313403
  H   6.56196688023256      0.40430388647528      0.62102383745639
  H   5.03115782895550      2.30914404357658      0.48752355046651
