26
Coordinates from ORCA-job 15649optt
  Br  1.55172867877592     -0.04200338031051     -0.61147985799790
  C   3.25713100815045     -0.66986799619467      0.14242667711886
  C   3.30738553458402     -1.88844925841257      0.75184937121560
  N   2.10890461019037     -2.62418365791486      1.02557815630858
  C   2.19347607233626     -3.98444058427833      1.27770922262869
  O   2.75259039882672     -4.48110327630843      2.21162176449994
  O   1.53847721844509     -4.75963282581364      0.34876891931538
  C   2.25927580788219     -4.91123767499146     -0.89496174378365
  C   3.25888172732681     -6.08783513976254     -0.82695858019894
  O   4.50055019808200     -5.81785273485115     -1.47194244933623
  C   5.13643804671941     -4.80311760260301     -0.77515728344925
  N   5.28607378946989     -3.64467323434331     -1.31652138624716
  C   5.16735715985889     -2.52902376834207     -0.55198222871382
  C   4.55035836315210     -2.57782058349497      0.73708024072617
  C   5.23767059160564     -1.21692727092080     -1.19650049177015
  N   6.03020318340862     -0.92063075106200     -2.16001545217114
  N   4.38404811621445     -0.28777452693600     -0.56770567850380
  H   1.37735582508862     -2.39554368599732      0.36264010090031
  H   2.79207289979855     -3.98886335200457     -1.14007260179884
  H   1.49589298349867     -5.08192360137683     -1.65151077222943
  H   2.85205055779218     -6.97513440894624     -1.31245199771584
  H   3.42448845624826     -6.31678025243906      0.23196792774978
  H   5.25690956256726     -5.03477576649415      0.28216109208967
  H   4.63007678443568     -3.46335449946399      1.34142674107983
  H   5.85538736383476      0.03210076496302     -2.47967912081023
  H   4.52021506170713      0.68484906829951     -0.78829056890640
