21
Coordinates from ORCA-job 15654optt
  Br  1.49872911069542     -0.82257018501802     -1.51719013848506
  C   3.14934941170030     -0.60172596054004     -0.61274887678100
  C   3.76530998164280      0.66927269303798     -0.57437414629486
  N   3.05407133027559      1.82371879013315     -1.07119784138189
  C   2.62055429131651      2.64831522444180     -0.06072899601505
  O   1.84828054431140      2.38761777082976      0.80379731311484
  O   3.25444724363152      3.91187633870916     -0.08689198489068
  C   4.23581665768546      3.95407651361012      0.89646179774451
  N   5.27070019672081      3.25712300017363      0.96370690678063
  C   5.64247687119279      2.31566985179748     -0.10610752053853
  C   7.10823266657808      2.24591722440916     -0.14668248440424
  C   8.30198488556350      2.23733594436879     -0.22857745202146
  C   5.02569367576457      0.90481614259039      0.00981908623002
  N   5.78789534432706      0.01895717475854      0.60412670090051
  S   5.29070387101387     -1.55592655754591      0.78119339976987
  C   3.69882354001826     -1.77307879526482     -0.04892496074509
  O   3.25128127087690     -2.91003118185946     -0.04623256558531
  H   3.55716392887463      2.33209323453478     -1.78372644092157
  H   4.01890096570669      4.69456219059158      1.66031266374931
  H   5.33206461062814      2.74517723257365     -1.06351956235636
  H   9.36251960147562      2.19480335366829     -0.27651489786858
