21
Coordinates from ORCA-job 15656optt
  Br  2.78651946858805     -1.06707620563632     -2.27294609094663
  C   3.10342512454807      0.01281414497690     -0.75859331931568
  C   3.15998667466691      1.35644165608983     -0.77145447840449
  N   2.89769378808856      2.15318862561865     -1.95444387072877
  C   1.50865897303624      2.48842338825587     -1.93290945972670
  O   0.70358663160700      2.08809631515014     -2.70997764420488
  O   1.15942329287904      3.35181197107131     -0.91126403503322
  C   0.77520124329041      2.75484077708909      0.30345173549267
  N   0.14901710983795      1.67168750051950      0.39445412584640
  C   1.13463045248863      3.57939757973175      1.47479711590552
  C   1.96803286778531      3.23349267031466      2.45901786468980
  O   2.74229649621745      2.14129491325532      2.61642127163410
  C   3.04486862429109      1.38588368258674      1.49326797512862
  N   3.30065357062681      2.06057921050575      0.37896876346666
  C   2.96029033149426     -0.01701309714684      1.62203481871537
  O   2.74214456039823     -0.71378820757911      2.58765577676068
  O   3.26515455202856     -0.68773288155755      0.38862983792185
  H   3.40569268248024      3.01876848163259     -1.77611239666884
  H   -0.02146292178745      1.23169073918990     -0.51059766606196
  H   0.66955506305415      4.55416159568376      1.54951049274257
  H   2.09663141438046      3.90303714024803      3.30108918278690
