24
Coordinates from ORCA-job 15653optt
  Br  1.32378193868437     -1.65167918712203      1.65679016597375
  C   2.62171504191379     -0.56124437125179      0.71509790075925
  C   2.31885106263822      0.80327942690472      0.54668059155136
  N   1.12109897398350      1.44295769429313      0.93924512550308
  C   0.05910817942676      1.55530033201584      0.10226499899187
  O   -0.29665773721240      0.79757626131030     -0.74619711063043
  O   -0.68302488326239      2.71621679724349      0.35369342547230
  C   -0.04043280247145      3.92349532015981      0.43747263661628
  N   1.03134192336190      4.32090548492362     -0.07289829377615
  C   1.88686587540247      3.53481497150122     -0.95964058945901
  C   3.18083722158579      3.05340400673493     -0.25608987846430
  C   3.33934507139957      1.55635947647298     -0.10730849782169
  N   4.44488552858890      1.02088280400289     -0.53422237988717
  C   4.61999392863589     -0.33304856390244     -0.33911345475927
  N   3.69057569969470     -1.13355643728380      0.31753235828320
  C   5.80052928624352     -0.93059240528988     -0.80282035409164
  C   6.82652692813598     -1.43814680225575     -1.20674746822750
  H   1.17685329766535      2.15022382479013      1.65862606365883
  H   -0.63835669617376      4.60088564936938      1.04205871238023
  H   1.37104059001587      2.69437314340110     -1.42972265213406
  H   2.16656297787020      4.21775478321740     -1.76193733198818
  H   3.21362533124745      3.52227873238073      0.73286655980724
  H   4.05665567770210      3.39748252668535     -0.80287051302447
  H   7.72127758492365     -1.88392346830138     -1.56376001473352
