22
Coordinates from ORCA-job 15662optt
  Br  3.88587722073344     -0.49736055024795     -2.85706920481302
  C   3.18027728509536      0.00078178454717     -1.18879932839497
  C   2.18759006690590      0.92725944582799     -0.99791149717372
  N   1.55104557034322      1.53443682288890     -2.09640439516419
  C   0.81517652415520      2.69087075095206     -1.92840622063233
  O   -0.20192537261526      2.91831251583859     -2.53278174198837
  O   1.41032029479810      3.57528680250078     -1.10744988789534
  C   0.71961243229604      3.94719344956875      0.09454966709499
  O   1.62082067268351      3.95192699549912      1.14508990749117
  C   1.48450443994561      3.08250278388472      2.23616772094278
  N   2.23078443203440      1.96300312553586      2.35999298580069
  C   2.44047773897451      1.23664321689651      1.29038425217761
  N   3.50227514003582      0.33368344960701      1.32316825442798
  S   3.71871194733131     -0.86241342931640      0.20514359396350
  O   5.12933957973307     -1.13662777637987      0.16624122028653
  O   2.85280419534677     -1.97033265839006      0.49414490846013
  N   1.71695800833688      1.34301621065719      0.17375568716222
  H   1.26836950905097      0.95015278952790     -2.86846671318884
  H   -0.10130426777779      3.25278268784662      0.27201565931044
  H   0.36104541526713      4.96673475233967     -0.05430586339789
  H   1.28340361590770      3.63298720287052      3.14684104179164
  H   4.15183555141806      0.36415962754487      2.09509995373897
