24
Coordinates from ORCA-job 15675optt
  Br  4.35127481140845      2.05864795477045     -0.19708663064583
  C   4.69757438397153      0.20493678682785     -0.36281247426145
  C   5.97572970357156     -0.21414094774611     -0.67707508926008
  N   6.18024775204051     -1.58402102781744     -0.96365079022861
  C   5.70894056436451     -2.55885790213189     -0.11668117305732
  S   3.99395371486290     -2.41013562272528      0.28099469573741
  C   3.60629221228383     -0.67989638675171     -0.08758144830899
  N   2.38544655816827     -0.31007198403506      0.03997132475537
  N   6.37467768739332     -3.55761595157299      0.32174278702579
  C   7.77447216324339     -3.53777197539688      0.11727436828194
  C   8.52866510819439     -2.50982951714105      0.52904148092802
  N   9.88922019761101     -2.34299543356124      0.23974517125692
  C   10.32883178061579     -1.19826146027603     -0.10450483733837
  C   9.53255327994184      0.06340699955457     -0.35757393397388
  N   10.03288018520057      1.24047215471172     -0.16193545268068
  N   8.28286884553965     -0.22792785559866     -0.77040551204052
  C   7.19426069642311      0.51490526721725     -0.62942249529095
  H   7.18067591697686     -1.68975145522432     -1.14464699975573
  H   1.78046003755556     -1.08959916951967      0.28730299283376
  H   8.20798737560764     -4.37903532657809     -0.41255176616976
  H   8.04391059579520     -1.72245942437672      1.09957471498144
  H   11.41040823730015     -1.10337123985415     -0.22585723310625
  H   10.99469184328133      1.15489564792366      0.16335503752722
  H   7.20197634864853      1.56447786930181     -0.35221673720944
