19
Coordinates from ORCA-job 15672optt
  Br  1.02536795010876      0.10271415553306     -0.21300433521623
  C   2.91561680914037      0.16337544462650     -0.30378446142940
  C   3.62438824418744      1.27028274460167      0.15327686310164
  N   2.88082713100372      2.39062747004687      0.51556578044000
  C   3.10048337644416      3.61183497880946      0.58305764928609
  O   4.22685314108352      4.38378608091564      0.28852696382883
  S   5.60047835252029      3.73353839280494     -0.20789528433710
  O   5.44208557912602      3.43980462490385     -1.58944780143258
  O   6.60461863843291      4.63321604689279      0.25066102147604
  N   5.67065556880926      2.39764613939252      0.70420199579448
  C   5.02125930791416      1.19639967221840      0.31606144710506
  C   5.76485349660257      0.00832774452472      0.20153775801344
  Br  7.57567708743978      0.01770029896302      0.83097313366993
  C   5.28319401102807     -1.26224397904419     -0.20927655624529
  N   5.83849997253336     -2.42092372918115     -0.23949451489105
  S   3.63735807072172     -1.28344704176993     -0.92594099827618
  H   2.33732887727008      4.30384073598374      0.92225136319080
  H   6.54017875550663      2.32491552915926      1.21640779151062
  H   6.79227563012711     -2.36539530938120      0.11132218441091
