18
Coordinates from ORCA-job 15679optt
  Br  0.66125569341263      0.12856864616014     -0.38986282139299
  C   2.54374475154054      0.25671399840011     -0.40316430358523
  C   3.23041498151615      1.02570832590546     -1.32979174675340
  N   2.61750087904292      1.83624102173852     -2.26971023387965
  C   3.50115311862320      2.51679877516534     -2.90929210614726
  S   5.15961740786081      2.26764199023028     -2.48159495295690
  C   4.64700880332593      1.08374435994336     -1.32765165217465
  C   5.51339199520074      0.27192942946701     -0.55755300210765
  C   6.90214350689399      0.49132890962688     -0.54048843599300
  O   7.46165516339305      1.42652025246454     -1.13212378678706
  C   7.78158365298608     -0.44781350251845      0.18821535216242
  N   8.56577064560974     -1.12127418589151      0.68628534960440
  S   4.73405600038487     -1.12512335247086      0.12847606660902
  O   4.53200166623338     -2.10450860070792     -0.89609341998737
  O   5.30891372971145     -1.50863816899655      1.38495239366513
  N   3.22905504696575     -0.52494272906518      0.52082744868552
  H   3.24187702334782      3.23651363253225     -3.67520571892470
  H   3.18485593395085     -0.25140880198343      1.49777556996340
