20
Coordinates from ORCA-job 15671optt
  Br  1.37501870774627      3.44840718084331     -1.10448668531867
  C   3.37060747099521      3.44829573575062     -1.16814903263538
  C   3.94792495160801      2.62860157540375     -2.13442894282012
  N   3.26094620384499      1.44669556157241     -2.51840455297548
  C   2.75672452361176      1.11392411378789     -3.73714622533868
  O   2.25348870771100      0.04144179549881     -3.96950438630767
  S   2.93563843155680      2.24711865094489     -5.14011945335028
  C   2.96935280373045      3.86358506741986     -4.43739966622751
  N   3.62365836874533      4.77081049968988     -5.02812452190439
  C   3.75557740598770      6.05300486783404     -4.44336051925455
  O   3.81874047851530      7.05143000627151     -5.10705378952013
  N   3.77704533393580      6.07721911751123     -3.03330852385286
  C   4.54902566164250      5.35978012953284     -2.33408474558514
  S   5.92614347346916      4.42511095667823     -2.95579620620579
  C   5.28468352202120      2.77373727401750     -2.67131073436980
  N   6.07587941348121      1.84858543438621     -3.08513323403198
  S   4.12716836881738      4.91292010135842     -0.63724856480475
  H   2.96616788826968      0.79981703681201     -1.79729467062074
  H   2.34879463452436      4.01389674081299     -3.55612904572064
  H   5.65241364978583      0.93561815387355     -2.92251649915540
