21
Coordinates from ORCA-job 15670optt
  Br  2.64895514610478     -1.09645317170709     -2.95517817943540
  C   3.09287896762345     -0.17219490706484     -1.38903119390325
  C   2.88389534285215      1.14480740576189     -1.22890101278777
  N   2.13909679930954      2.07675550028194     -1.95372228529721
  C   0.72088193686788      1.92000808108277     -1.98123714044771
  O   0.16906728886682      1.00880867444964     -2.51954567116994
  S   -0.21993735259482      3.19838234281352     -1.09174360982433
  C   0.81690944748994      3.68924489612645      0.21897916441523
  N   1.39109485396408      2.73986982737330      0.96181347466031
  C   2.30020021938614      3.06018001031709      1.89346462928063
  O   2.42769167914124      4.05845473607381      2.59087940765387
  N   3.28475812480127      1.99516872877945      2.04320121552746
  C   3.46413247829416      1.10764419114250      1.03064498818077
  O   3.43354210745386      1.76150760237736     -0.15914114768729
  C   3.65962177966690     -0.22735873739447      1.02481096313419
  C   3.64792844967448     -0.95143793693208     -0.24456891246813
  O   3.92919133806198     -2.13254187422993     -0.34259113543788
  H   2.34962186558229      2.99179565690793     -1.56232753483412
  H   1.04300601086244      4.74701737996351      0.31561882847385
  H   3.63799415434268      1.79658181602082      2.96411217380528
  H   3.68946936224869     -0.80124022214361      1.93846297816146
