22
Coordinates from ORCA-job 15680optt
  Br  1.09012154478633      0.09363383315030      0.28290269654103
  C   2.96690985107178      0.01988881882443      0.13619329248545
  C   3.59946081408870     -1.21482063449069     -0.09790900235961
  N   3.00372393460756     -2.42807046661471     -0.24531940484529
  C   3.86423015140843     -3.38370192630562     -0.43220332408295
  S   5.54600799305147     -2.88358348466216     -0.44602680751446
  C   5.02707992163557     -1.24493252759717     -0.20509580475133
  C   5.76792780230469     -0.10301942078893     -0.08497367558214
  N   5.10118825109792      1.09216503527182      0.20067853807427
  C   3.69553540174386      1.24020006069781      0.24268100314696
  N   3.15158359449870      2.40939671973624      0.37567747070588
  C   7.22213094448523     -0.06296384307147     -0.06243925332698
  O   7.85728600830669      1.17820050190735     -0.37780321646102
  C   7.98441941501760      0.71715409724759      0.96159561471800
  C   9.29083946856241      0.29600858140776      1.39359190867353
  C   10.36330024146327     -0.09103511527335      1.76821262002802
  H   3.60621093148919     -4.42119327703847     -0.57826600152159
  H   5.59875422292623      1.92855277367470     -0.06901141805780
  H   3.87333664932247      3.12200126157351      0.45669077297589
  H   7.72704194435895     -0.93619627989179     -0.46386193479363
  H   7.39633249821825      1.27125005359034      1.68570796271083
  H   11.31257841555454     -0.43593476134747      2.09897796323694
