21
Coordinates from ORCA-job 15681optt
  Br  1.23384696757591     -0.44699549442266     -0.26662418149149
  C   3.08898236247504     -0.17562689304704     -0.18678797272140
  C   3.94782871086332     -0.64002690733736     -1.16656618646667
  N   3.60061715542831     -1.36544511970861     -2.23648929000829
  C   4.62444934949119     -1.63391845363498     -3.03690505896426
  S   6.17835889099290     -0.95513193089452     -2.50313776298690
  C   5.39526443160462     -0.37498867352745     -1.05613181976821
  C   5.99137416494266      0.14071513559771      0.02740661198273
  N   5.23533406490966      0.58772104878009      1.13298837665680
  S   3.64283547387051      1.02147904096846      0.92078582264821
  O   3.63486070826242      2.32660082461102      0.32684328888774
  O   3.03265123337766      0.86560922511464      2.21249927708894
  C   4.54293162029716     -2.38381395914739     -4.21982328515104
  C   5.52215338896208     -2.66808588140185     -5.17224559207725
  C   4.99389498328846     -3.46263822881662     -6.19840480721876
  N   3.72514871136448     -3.80959236239436     -6.11121774555015
  S   3.08253479198725     -3.15694941167164     -4.73019169229288
  H   7.06458709759599      0.23989996123720      0.11953465432007
  H   5.33855554110814      0.05574451917623      1.99003189642212
  H   6.54005423294134     -2.31014320300450     -5.12422484998344
  H   5.56173611866079     -3.80341323647635     -7.05733968332583
