21
Coordinates from ORCA-job 15689optt
  Br  3.45508822484086     -0.57259423856726     -3.37847540560904
  C   3.49192411252500      0.05838491696771     -1.60490116397513
  C   2.95259578834864      1.25869534654980     -1.22709577101648
  N   2.17710989806345      2.03178120784491     -2.01512852011650
  C   1.78189050448380      3.24955722651243     -1.68716396355108
  S   -0.00322516919075      3.51579561433658     -1.58409719768169
  C   -0.06748212649199      2.81809563184323      0.02966240181140
  N   0.27343706234437      1.60664976678923      0.36021363125284
  C   0.63525326020423      1.67926150067771      1.68782400363355
  S   1.65377141752541      0.42970682539299      2.41277613498279
  C   2.70979137425939      0.28640563207380      0.99160192420351
  C   3.10245182099558     -0.88578093296371      0.48271660101271
  O   3.74240863951540     -0.96155519276699     -0.70364665057035
  C   3.07876884530076      1.50447941021682      0.23262973828275
  N   3.35981815351656      2.64257072246894      0.73096091435254
  C   0.41278920162047      2.93398135224784      2.13840388208612
  O   -0.07017475371551      3.66822741460686      1.10713176485518
  H   2.32844447320245      3.89056321648216     -0.99996538440447
  H   2.95782756252990     -1.85155545214332      0.94853173139900
  H   3.28475845754713      2.60023106314290      1.74945221507509
  H   0.56575325257483      3.42709896828735      3.08156911397726
