22
Coordinates from ORCA-job 15685optt
  Br  0.85367546729864      0.27798882952619     -0.70024493088933
  C   2.64352838048789      0.31608253005680     -0.14640541095164
  C   3.34345310683236      1.51071206219208     -0.05665424899174
  N   2.93379573098336      2.75946939503625     -0.30184118163681
  C   3.91457478712176      3.62801921898899     -0.14604559374017
  S   5.46070700421995      2.97838748772902      0.39341043568552
  C   4.72757241024655      1.39179072774449      0.36897798048521
  N   5.35726601665164      0.31876897617466      0.67678818430834
  O   4.61394214821111     -0.85173640169521      0.58232018625417
  C   3.28231040075691     -0.91985344947765      0.17601052863286
  O   2.80686868627920     -2.02972970423282      0.14262324150759
  S   3.64983197905225      5.33830849127561     -0.09587590874505
  O   4.95285786100935      5.95615826023421     -0.03453615897548
  O   2.70594195484700      5.72691253559836     -1.11052501279745
  C   2.84870221058871      5.61922279644554      1.45198488713093
  C   1.81626187787712      6.70450921495334      1.51971879102845
  C   1.39907257972274      5.26906105792624      1.55117453228479
  H   3.50873450331694      5.44619696449486      2.29056430794604
  H   1.63075847257803      7.24907869786072      0.60505203765408
  H   1.78061824357771      7.28221706052058      2.43255838138052
  H   0.94637590180699      4.86263396368340      0.65720419224762
  H   1.06415027653371      4.84080128496424      2.48474076018156
