23
Coordinates from ORCA-job 15691optt
  Br  1.66486440025790      0.08949886649930      1.93552931351966
  C   3.32545232199004     -0.03001848636455      0.96714406727748
  C   3.74569831744436     -1.25399547175869      0.47487682680796
  N   2.96027048838014     -2.39534415022773      0.64007970380682
  C   3.30710257426832     -3.54836915430753      0.25853808378981
  S   4.82960536447274     -4.03082354761039     -0.51261312574875
  C   5.51301622897786     -2.44789409180688     -0.75634034592774
  C   4.98096079333111     -1.29276510167408     -0.24445371482181
  C   5.72707886070483     -0.03700355398315     -0.45740304817386
  O   6.79470567450832     -0.00435943233778     -1.10491732707984
  C   5.12579794901657      1.10433881218211      0.15217399851670
  N   3.98299447280853      1.10439263395853      0.82911027266439
  C   2.30684051569408     -4.66818879630963      0.37208864399861
  C   1.60472289650960     -5.03998102901446     -0.95164902513978
  C   2.37234307007933     -6.35992395144219     -0.81893024822265
  O   2.90281683531096     -5.97500202022109      0.45801143874237
  H   6.43687351174535     -2.40514350349423     -1.31582517848177
  H   5.63952936594813      2.05501434767110      0.04930153123619
  H   1.65129445022178     -4.45433188421683      1.21590360869908
  H   1.87055660682319     -4.41522863772089     -1.80054485989838
  H   0.52445992415935     -5.12450558450777     -0.86848902018810
  H   3.16893036069086     -6.50299267413545     -1.55261277071432
  H   1.76908501665659     -7.26737358917767     -0.74697882466205
