23
Coordinates from ORCA-job 15696optt
  Br  1.27794544429189     -1.68588685467246      1.67493800448523
  C   2.41849350215196     -0.57872858738721      0.64219436890986
  C   1.97860033773728      0.67162222439660      0.27201611852856
  N   0.74623438810080      1.15375691677437      0.73036236609303
  C   -0.06715956222367      1.63322032952618     -0.09723780967811
  S   -1.30249921486479      2.77292789785191      0.51853555550209
  C   -0.13233190119881      3.86935633560215      1.26094670223142
  C   1.06322870858565      4.13278698107156      0.74615998267060
  N   1.47066103435897      3.71436515653983     -0.55904745041945
  C   2.57795754536889      2.87649306234896     -0.82263570656141
  C   2.81736515198222      1.55978157741246     -0.49534307003678
  C   4.12639620319819      1.04146612794574     -1.00023549543649
  O   4.85914331640991      1.73913224715384     -1.72855339462273
  C   4.48638724852818     -0.27336971372183     -0.59208716625909
  C   3.67199890806769     -1.06216778924537      0.21272837278069
  C   4.12274440495827     -2.36453608251526      0.58400578447393
  N   4.51918968004960     -3.40892957214357      0.86373340592282
  H   -0.00562010465479      1.51974829929601     -1.17939003400232
  H   -0.41331965300185      4.27689948790021      2.22307797172693
  H   1.76588396176302      4.73001554115257      1.32527962955966
  H   1.54406590161792      4.53797570890942     -1.14122079249532
  H   3.32008489825335      3.30182971913730     -1.48665683934734
  H   5.44154980052007     -0.65275901333348     -0.92857050402578
