23
Coordinates from ORCA-job 15693optt
  Br  3.76315235489702      1.48246154560673     -3.91137065776426
  C   4.10002249261653      0.39065852176428     -2.42111024902876
  C   3.44883532511066      0.63173733775315     -1.22045732092210
  N   2.62806027162169      1.66509344786429     -1.04301723021161
  C   1.59332936392736      1.87721865791907     -0.23871592814312
  S   0.44619267753186      0.64481968507371      0.40762932503002
  C   0.63911150314460      0.41288160658346      2.17937970772327
  C   1.58860001416361     -0.30887288261963      2.79352510591515
  C   2.69327080686636     -0.84159298751297      1.99328927295289
  C   3.28975485426934      0.01754995758247      1.17326772981242
  C   3.88349963201303     -0.27255868999143     -0.13076492789629
  N   4.72479850803805     -1.22770560279432     -0.23573020427183
  O   5.23053969825202     -1.50684484178585     -1.48666869122019
  C   4.97647906657959     -0.72306730849060     -2.60521912396185
  N   5.53017210133127     -1.06871673389065     -3.70100702514423
  C   1.14528496441005      3.20083533151618     -0.03772152022651
  C   0.74736564814496      4.32224886422687      0.17813310196841
  H   -0.20346537994572      0.78255894410896      2.75382746028502
  H   1.47779688790829     -0.53471922436597      3.85085028486199
  H   2.81986760974836     -1.91416451811380      1.88366395779537
  H   3.11842207350778      1.07035247161582      1.35266197150491
  H   6.09574414702265     -1.89921094519416     -3.53920395128518
  H   0.39516537884043      5.30903736314435      0.34975891222646
