22
Coordinates from ORCA-job 15697optt
  Br  1.81174906384796     -2.14043300627037      1.83384759558779
  C   2.93795036536265     -1.00887728270694      0.78023690009976
  C   2.39527511792914      0.27591710224206      0.40183013052313
  N   1.19423700866733      0.64906998192578      0.71472838900939
  C   0.73726443335077      1.87908044830914      0.21327840045115
  S   -0.32219190534066      2.83630382860985      1.39737704342414
  C   0.27428421860872      4.32984371166055      0.67747331935197
  C   1.39443047815157      4.13954112191173     -0.03503817374548
  N   1.80492950496057      2.82960268683110     -0.11379951262477
  C   2.91378978335425      2.32150946493985     -0.72144929045592
  N   3.27836025380489      1.04012663634531     -0.35410018343699
  C   4.59179416355744      0.60469879684980     -0.77758458727375
  O   5.24476250024234      1.37311388803247     -1.46086315915124
  C   4.94222836695245     -0.69840017175935     -0.30857422096762
  C   6.21224452426975     -1.33585835960257     -0.57754607462140
  O   7.15742767756256     -0.91501784137565     -1.21316584650910
  N   4.09124301936603     -1.43333511988085      0.44923334597094
  H   0.12104299868990      1.73350859268227     -0.68633737616308
  H   -0.18469020924455      5.28149599798498      0.88376448315571
  H   2.00011775694468      4.90725976583494     -0.49541568450663
  H   3.67801890118319      2.95830176426282     -1.13016422317812
  H   6.25473197777897     -2.33845200682694     -0.10273127493987
