21
Coordinates from ORCA-job 156optt
  C   -3.85545665201751      0.95964079730788     -0.00220125868897
  C   -3.08782288478713      2.12573381789670      0.00000732363548
  C   -1.70358486689134      2.09531603653127      0.00062127346591
  C   -1.02318195934192      0.84196758006521     -0.00096867078447
  C   -1.83014562136744     -0.33413029098994     -0.00330352704760
  C   -3.20294324755610     -0.29661298254151     -0.00389162483169
  C   0.35821203032811      0.57074769773412     -0.00069579532805
  S   -0.82046970980278     -1.77584325406540     -0.00526025630138
  C   0.65970300532581     -0.82332614175202     -0.00290882236151
  C   1.46182663361857      1.47355468001942      0.00160985496855
  C   2.75414552262644      0.97697418427748      0.00158957015055
  C   3.02334985831852     -0.39306209764856     -0.00063766892000
  C   1.94396712601188     -1.30898077793489     -0.00294153687865
  H   3.58523338492451      1.67510383255841      0.00340115057139
  H   1.28386369715651      2.54214858920979      0.00342556863385
  H   -1.13393042434512      3.01692363508860      0.00226607516085
  H   -3.59255783309246      3.08680172805665      0.00127660532492
  H   -4.93639871282623      1.01155242444895     -0.00259294995279
  H   -3.77775698598611     -1.21569853272321     -0.00557585845826
  H   2.12742119668314     -2.37721523099983     -0.00461937008518
  H   4.04352644302066     -0.75359569453912     -0.00060008227294
