22
Coordinates from ORCA-job 15706optt
  Br  4.32249146620554      1.23178594485403      2.41261698877555
  C   4.82207602876003      0.09395644311935      0.97823150153154
  C   5.97929773534331     -0.75124988162140      0.98408795565521
  N   6.15790119472257     -1.49028760446127     -0.15779944598443
  C   5.32713693300852     -1.35904563605842     -1.14899302263962
  S   5.74800675704082     -2.27339803477234     -2.65493000371533
  C   7.28302100230824     -2.80139072778805     -1.92506335014593
  N   8.37240000364700     -2.21380329744748     -2.15755325068304
  C   9.35495418773511     -2.45484000134926     -1.17665575567771
  N   10.34756190647941     -3.22663851819414     -1.22221069017644
  O   9.09466975089559     -1.65190645699617     -0.11133443882273
  C   8.93095821753625     -2.28082906565106      1.10643431362575
  C   7.99524811725180     -1.95247868750167      1.98968926028696
  C   6.91419328610551     -0.91318291283368      2.05924747197783
  O   6.83335293884353     -0.30063745667145      3.14359477833103
  N   4.22454970402929     -0.62474855434740     -1.23946604978854
  C   4.00085047240433      0.10008446495420     -0.11656273067150
  H   7.17502416825561     -3.55713057519738     -1.14588887455524
  H   10.34961555585545     -3.72386517115894     -2.10906224471765
  H   9.67104175119083     -3.04871296632809      1.29916410068895
  H   8.09409831867834     -2.46987428244284      2.93930642287656
  H   3.11455050370276      0.72419297789350     -0.11685293617123
