21
Coordinates from ORCA-job 15709optt
  Br  1.21529051409055     -0.07612033510959      0.82353048786028
  C   2.89200331976861      0.04644068400699     -0.05872064278522
  C   3.60067894375686      1.23681837784381      0.04345485793936
  N   3.02821265808110      2.37369435795366      0.42327355843820
  C   3.59809324052112      3.52752934149707      0.14133277006029
  S   4.79395981208604      3.63274580260616     -1.14291573998568
  C   5.78657253143720      2.27148285255457     -0.55346257285468
  N   7.06177117612801      2.30636684164891     -0.52686761814015
  N   5.04800425522983      1.16709839909735     -0.14906843234476
  C   5.71177123109043      0.00400804933091      0.34208203368318
  N   6.87922128531446     -0.08179533476521      0.81544799914937
  C   4.94244754595229     -1.23912119764588      0.13669197277976
  C   5.47786781556207     -2.46377364611430      0.03719114551973
  S   4.30415085752749     -3.60971369388532     -0.50669872281174
  C   3.05190193102544     -2.33350620711314     -0.67919404777660
  O   1.94090997802439     -2.51245056131206     -1.10621788451332
  N   3.59969632403968     -1.16228620493540     -0.19765117383240
  H   3.23480333112003      4.45596097544224      0.55480415916382
  H   7.37902961697984      3.19774157618827     -0.89276579433711
  H   7.34935902368940      0.81888407817208      0.78379113254467
  H   6.51825460857508     -2.69600415546116      0.18296251224300
