20
Coordinates from ORCA-job 15705optt
  Br  2.83616782975225      2.02919480179823      2.99045272033281
  C   3.72964041289339      0.73600938912051      1.93747389694008
  C   3.45702125552129      0.60460174946788      0.60162477259144
  N   2.76476846310124      1.45467646422273     -0.18892857703100
  C   1.51572539859557      1.87214918414848     -0.02245867872743
  S   0.17702755274831      0.81361187198729      0.54246916123119
  C   0.69440913347857     -0.23805258067201     -0.80522501542504
  N   1.62283610925676     -1.06859466408018     -0.57779542202250
  C   2.59099544114537     -1.29671043334576     -1.59037634753668
  N   2.40051343193267     -1.62753747315552     -2.80124639317934
  N   3.88098978244998     -1.23703280282251     -1.05973815672714
  C   4.16710097589874     -0.53720034488995     -0.04527927576116
  O   5.34274829416483     -0.90757427724327      0.57234388758465
  C   5.51611961061183     -0.63069600764287      1.87508448744585
  N   4.75024800050634      0.08515734109659      2.58650495578346
  C   1.09412200627488      3.04132101813237     -0.70687700223593
  N   0.73283439267207      4.01522544877969     -1.21443651389432
  H   0.47770725464606      0.17294674337651     -1.79703747653104
  H   1.39937571343617     -1.68795666599746     -2.97707219856139
  H   6.41164894091363     -1.09053876228074      2.27051717572349
