21
Coordinates from ORCA-job 15708optt
  Br  0.82940861260982      1.68165157830556      0.40725885771897
  C   2.50539857551583      0.85399251231928      0.14945716263019
  C   2.56024790382428     -0.52744870941873      0.06083160515047
  N   1.37754125203054     -1.18399768025167      0.16538846073072
  C   0.96056532308176     -2.37015023741013      0.14870897604296
  S   1.77725131865198     -3.90856843510704     -0.02937693084235
  C   3.46598564888899     -3.50198645572117     -0.20665482456479
  N   4.15358449612066     -2.44131008272931     -0.23447070781549
  N   3.82536627965704     -1.14301864293160     -0.13334679967911
  C   4.96099612498167     -0.33720395169114     -0.23388484547337
  C   6.25967018571845     -0.65186872999591     -0.42228025129776
  C   6.97429970927609      0.64588514134966     -0.43908423607459
  O   8.17577788313464      0.80425379790191     -0.58961851891317
  N   6.05127390952211      1.69622096952139     -0.25448270119123
  C   4.88251106691629      1.11677100348154     -0.13749058815054
  C   3.62611619344142      1.77681163936232      0.06470331832202
  N   3.47461121860488      3.06528844305790      0.16405295849269
  H   -0.10952414312376     -2.53933474126998      0.26520769535610
  H   4.04634998723188     -4.41322406885136     -0.31692459946366
  H   6.71928797301434     -1.61693568397685     -0.53928735957814
  H   4.40528048090106      3.47717233405535      0.07029332860006
