23
Coordinates from ORCA-job 15703optt
  Br  1.47383356007471     -2.15799155412377      1.28178847092825
  C   3.05564035433051     -1.35649080167925      0.63560340015663
  C   3.06635475536752      0.04059974654775      0.38624472612824
  N   2.00082605544541      0.81843955370971      0.52564107172747
  C   0.86313954898250      1.08219927844715      0.93558485549045
  S   0.25864880136712      2.88777213232287      0.85820066349750
  C   1.71157938528362      3.50933605636985      0.14157976806988
  N   2.81486518587021      3.09466798274969      0.61935568097039
  C   3.93513179080686      3.01724257614755     -0.19688139857954
  N   4.57446573802256      1.95970304444143     -0.48039192750327
  C   4.31440883299365      0.63786597937273     -0.09824398122821
  C   5.38900845739568     -0.19954387775036     -0.28448356933586
  N   5.31382220562075     -1.55448025229222      0.00583147341503
  C   4.17117535558293     -2.22377214802079      0.44898637617513
  N   4.16097804696585     -3.50069542977567      0.66591369765447
  C   6.64397634499747      0.23628932046947     -0.78334241863276
  C   7.73848548750205      0.50377326735089     -1.20818822531053
  H   0.13633441743553      0.48870795561053      1.48221256949020
  H   1.62531805307591      3.96939402702874     -0.84938174909161
  H   4.31287570835068      3.95496800230680     -0.61612579579448
  H   6.13697403075977     -2.10802527106770     -0.15833365660618
  H   5.07594444367060     -3.89806562821761      0.46394803273074
  H   8.68921344009802      0.77510604005220     -1.59651806435193
