23
Coordinates from ORCA-job 15710optt
  Br  0.91206050110813      0.21042373956059      0.47965660077826
  C   2.76054104413686     -0.10893933879876      0.21091557747027
  C   3.18055564737240     -1.40067801188356      0.01695289267612
  N   2.41421803485223     -2.57119143683921      0.09829169176603
  C   2.57860678757340     -3.25275747557190     -0.96453751929494
  S   3.10277087494080     -4.91827868173785     -0.73167012742264
  C   4.68887396418643     -4.36203205959502     -0.07381436041822
  N   5.52494288071518     -5.22276905272638      0.36378462844984
  N   5.09803597301812     -3.04288328423332     -0.12636718254598
  C   4.58504157893140     -1.70121440487824     -0.15714612112459
  C   5.50611465174170     -0.68806557567449     -0.19356961184297
  C   5.09699796741866      0.66405854637675     -0.06080498128498
  C   5.79279266625111      1.84265405590578     -0.07155549082791
  C   4.84044187796145      2.94037074220699      0.14159260676879
  O   5.10401579111579      4.14837457984143      0.19113533265375
  C   3.51090165966499      2.33152170677686      0.28617115625050
  C   3.65875339952223      0.97409535126356      0.16769684089921
  H   2.85477351510757     -2.80768436445985     -1.92331137904893
  H   5.16946603113954     -6.16897518083198      0.27993382433938
  H   6.07351444919489     -3.03709696603475      0.14114812888796
  H   6.56076718114036     -0.92156235787817     -0.29406002580693
  H   6.85477473852280      1.98084108753803     -0.20743884963082
  H   2.59903878438388      2.88278838167350      0.45199636830877
