21
Coordinates from ORCA-job 15716optt
  Br  1.95149634884395     -1.75103020525028      1.18123390452177
  C   2.95326143993569     -0.05514753840589      0.93630359655817
  C   2.39224161948533      0.94356563843787      0.12997493325476
  N   1.12556928073004      1.41882437579992      0.21938566996231
  C   0.19176655735732      1.20803233634323      1.03760763044733
  S   -1.21149906218532      2.30719803250156      0.95707088691769
  C   -0.52353003507093      3.79603640632401      0.24935465618231
  O   -1.26112644052422      4.68148268611323     -0.08798985969596
  C   0.98609942341765      3.93752919459279      0.09349965392959
  N   1.68256003496671      4.21554276172666      1.09988812121112
  S   1.50954984351247      3.71556650711207     -1.60681994862089
  C   3.01283666796844      2.83298130204549     -1.44363525210284
  C   3.23415891534716      1.67614949319501     -0.76183877381453
  O   4.51482552555830      1.16608833150990     -0.95673843144565
  C   4.97929108316417      0.08205292686648     -0.29956037729634
  N   6.05880550665301     -0.48446196973154     -0.61384222914883
  O   4.29745999690129     -0.33926397045337      0.77560893649035
  H   0.15699355749077      0.48571110977291      1.85150239742916
  H   2.66846394068787      4.30537855378295      0.84187246851934
  H   3.82757983965482      3.21530010255973     -2.04175085195333
  H   6.46319595610539     -0.00253607484278     -1.41112713134552
