22
Coordinates from ORCA-job 15719optt
  Br  2.96777045837784     -1.18886040384623      1.50980681462016
  C   4.31435528518240     -0.70337702376278      0.26787820546311
  C   5.44973213396110     -0.01615297333762      0.53646594749756
  N   6.37012518980747      0.19049347700500     -0.45880022486690
  C   6.27194358572095     -0.61897456624270     -1.53330955446909
  S   7.71755079353872     -0.92363830533961     -2.51321680409769
  C   8.41895056949542     -2.06388515202894     -1.23881065993782
  O   8.27519916234613     -3.25076000867927     -1.25119487090599
  N   8.98363845485868     -1.35918768432202     -0.16091724043507
  C   8.21212585593268     -1.41184435894350      1.03239595338446
  C   7.94872352120740     -0.27549805052503      1.65451826353328
  O   6.89913215174468     -0.09481866655113      2.52595679947913
  C   5.76261396161261      0.43201625958650      1.93829601593534
  N   5.06070512870600      1.17789498762676      2.66836205080571
  C   5.12691283348365     -1.46136501340969     -1.79243890608574
  N   4.90147784834355     -2.37246551260542     -2.64717419446651
  O   4.02752137916187     -1.15266468944186     -0.97242239090767
  H   9.08927425197107     -0.38934019195534     -0.43335110226263
  H   7.70321967618959     -2.34408285154399      1.23526493280753
  H   8.43674454086241      0.64638854237364      1.35356086188907
  H   4.22402130752229      1.44976204000105      2.15841457518945
  H   5.73826190997336     -2.50863985405782     -3.20828447216967
