22
Coordinates from ORCA-job 15715optt
  Br  1.56173919229844     -1.60224631977179     -0.77843239326822
  C   2.75158447909431     -0.20958589136598     -0.21059827474102
  C   2.22449011812334      1.03291594799190      0.18370414050908
  N   0.96182118730009      1.41214079508401      0.35161860284312
  C   -0.20106921756472      1.00308508429706      0.01398491303830
  S   -1.69934139860563      1.91006119039050      0.39493214510630
  C   -1.51961145618800      3.54443305222398     -0.46596231466223
  O   -2.49164009243755      3.98198612491570     -1.02595920760998
  C   -0.18880895112296      4.10472432515674     -0.45966713386733
  C   0.68874288218053      3.79362847032356      0.52073930790334
  N   2.00037262731287      4.14582079696093      0.53283177463047
  C   3.02337944188400      3.39034369245177      0.62636667229564
  N   3.21551241265813      2.01861740081232      0.53678856891982
  C   4.60845922723094      1.63301121536347      0.68800591771364
  O   5.42459306336681      2.43871288486640      1.12283780110499
  C   4.90848859113690      0.31203278581577      0.27933298141682
  N   4.00545372064495     -0.55548652770230     -0.17478317043114
  H   -0.41820015187738      0.09614082928104     -0.53705813082872
  H   0.10181012295038      4.70589832982658     -1.31132524059942
  H   0.31251386142978      3.33565694370016      1.42698367346543
  H   3.98168628713306      3.87318189912038      0.76653951251621
  H   5.94102405305166     -0.00007302974224      0.34511985454489
