19
Coordinates from ORCA-job 15713optt
  Br  1.33005905743333      0.11485078745749      0.00859066782359
  C   3.20767462117405     -0.01723088448810      0.03547000837307
  C   3.82903200919568     -1.28005621902358      0.04530973400142
  N   3.06775642064037     -2.38099728851072      0.04482638981611
  C   3.52313461663384     -3.60400821137469      0.05182004510468
  S   5.21965370054475     -4.06308093987693      0.05828697922371
  C   6.07781383836589     -2.51672371001384      0.05759973452826
  O   7.28652058827335     -2.56977691020204      0.05877253604738
  C   5.28436119948996     -1.27809988894571      0.05586976250144
  C   5.94605884500789     -0.08144744212918      0.06189371561138
  O   5.30757730312938      1.11082326016819      0.06079551126702
  C   3.90544652109257      1.21500707282063      0.04529213057517
  O   3.47295661866904      2.34024200643334      0.04292010753934
  C   7.35670599279463      0.11191220768069      0.07076777176924
  C   8.52110352667760      0.40382550817186      0.07751478810991
  C   2.64384000093607     -4.71171601320383      0.05484811966539
  C   1.93577621742193     -5.68855663168029      0.05747497676447
  H   9.56156599262833      0.61810072237639      0.08354780663627
  H   1.29796292989127     -6.53806742565962      0.06039921464214
