24
Coordinates from ORCA-job 15725optt
  Br  -0.96190716997982      2.36093068372709     -2.95779746673837
  C   -0.54415332783129      2.14269418389965     -0.63365631101228
  C   0.73035541968277      1.92323753467794     -0.27048653663989
  N   1.77569544796148      2.82934713736807     -0.65641642772014
  C   1.75590501245836      4.06669164387367      0.05985861819513
  S   0.66687081712322      5.45942018704854     -0.45245208368966
  O   0.95822745550059      6.51790537729380      0.48256584943130
  O   0.88715761993736      5.68442486070560     -1.85312962070840
  C   -0.96340703407919      4.98377948737007     -0.21927605984638
  C   -1.95805094521005      4.30125456717043     -0.15561738420961
  C   -3.07918836286392      3.43150723403191     -0.02762016870189
  C   -2.93300111559545      2.09712661296913      0.07784839812750
  C   -1.62371108244643      1.45874433009789      0.02410205836407
  C   -1.28017684334450      0.39339476524134      0.76941869229717
  O   -0.01121801124504     -0.01384070165987      0.93002618272419
  C   1.07249628450347      0.77429365179431      0.54076076009259
  N   2.20315282989135      0.36365909124818      0.94863418415818
  H   1.76636502098363      2.97729162023935     -1.66405069549268
  H   2.70837481655868      4.59948067451044     -0.03465780040138
  H   1.54341475765236      3.90067546427669      1.11524823827726
  H   -4.06012437012189      3.88467921360559      0.02812563185397
  H   -3.81306976849975      1.49031529774357      0.26092059862786
  H   -1.97206029619127     -0.21107263575366      1.34517931827377
  H   2.90805284515537      0.99505971852006      0.57447202473771
