27
Coordinates from ORCA-job 15724optt
  Br  0.76052514151010     -0.56209028604458     -0.84279705277128
  C   3.02951010917835     -0.00337986673026      0.26236599223128
  C   3.65465560467036     -1.15143841823005      0.61385123531305
  N   2.95643500182178     -2.35069670289749      0.93050570714088
  C   3.07324417012505     -3.37082692286634     -0.07891110244574
  S   4.53002521497714     -4.41569686043367      0.12778090856747
  O   4.62150714619500     -4.89408223459270      1.48424003493158
  O   4.50424321610590     -5.38095227989511     -0.94612943146236
  C   5.93667841441744     -3.34059477051324     -0.14169457110612
  C   6.04330294989598     -2.23975248707426      0.91671162591178
  C   7.39903088711138     -1.48999035049815      0.89651241368827
  N   7.15494639946909     -0.22928360517329      0.16610795046890
  C   5.75662053210375     -0.02449782006787      0.23610291088618
  C   5.07516971591850     -1.11892817199113      0.63341160075816
  C   5.08245575120504      1.18576988103707     -0.15347108533351
  N   5.57402893894987      2.29561523532488     -0.54638958020790
  O   3.71416276253012      1.10671154119619     -0.04829743358218
  H   1.97328487284389     -2.11986552196008      1.03735314818581
  H   3.11723447977364     -2.99340149715646     -1.10784135212678
  H   2.25627026820955     -4.08995777599944     -0.00307822042076
  H   5.85857165627087     -2.93805468099292     -1.15309468257210
  H   6.77888715561622     -4.03501162684241     -0.09516600636199
  H   5.86303490592369     -2.69943246057887      1.88980822341934
  H   8.18613415415537     -2.06905843177140      0.41183350042167
  H   7.70567408191578     -1.28554102334307      1.92622894032202
  H   7.68501948103870      0.54531628523024      0.54769764440033
  H   6.58534698806728      2.21512085286448     -0.59964131825600
