21
Coordinates from ORCA-job 15736optt
  Br  0.98582789246050     -0.19841208290468      1.23261238179067
  C   2.74170905319094     -0.10878867750825      0.57224432266046
  C   3.50254532600922     -1.18093349468287      0.31858398873686
  N   4.89595338542036     -1.13047661261063      0.10529878953342
  N   5.46132079751889     -2.37607148976475      0.09204610263887
  C   4.46461962827459     -3.22771448829322      0.24422505578005
  C   4.42079827657194     -4.61782786429245      0.28464020357726
  C   3.19398008672225     -5.22727602756494      0.27884388768529
  O   2.03797625726704     -4.49295064196625     -0.01007816251138
  C   2.09399878665236     -3.16085473966663     -0.22406978210058
  N   1.20426344146595     -2.53035012766570     -0.85888623862046
  N   3.20886553426590     -2.54121452832578      0.34470442590953
  C   5.66925943309485     -0.01929673975071     -0.09809616174468
  O   6.87104642965437     -0.08877924091182     -0.33059212282460
  C   5.00785802827601      1.31680921919022     -0.03828446520912
  N   5.65123726370440      2.38472956791034     -0.29260839000122
  S   3.33187608048122      1.53067404221889      0.46382173567094
  H   5.33404631010736     -5.19166299521118      0.31493066316845
  H   2.99095533746466     -6.28233761829556      0.31670886295004
  H   0.48708626811255     -3.18365007744301     -1.16209389834192
  H   6.60877638328459      2.10538461753900     -0.51995119874788
