23
Coordinates from ORCA-job 15737optt
  Br  1.20122099661658      0.02480579232136      0.15803656295047
  C   3.09927541672968      0.08054220106267      0.09324547695136
  C   3.78209877017703      1.28821370042105     -0.02285401698739
  N   3.14529138223203      2.48809143436075     -0.09712186806541
  N   3.73030097980538      3.71182520065992     -0.15909029368491
  C   5.05772339285615      3.70523480492222     -0.02140956412996
  C   5.74583977830379      4.99392750163178      0.02399565104900
  N   5.19902968138193      6.15215883995633     -0.12479452482130
  C   7.16809930381651      4.88917344273262      0.29432064698034
  N   7.83247283767918      3.79215539975782      0.45705465682118
  N   7.15799536747005      2.64559477241571      0.32589630810390
  C   5.82330713982588      2.53194670634842      0.08143566463309
  C   5.18980293624292      1.25705101804641     -0.02710171063347
  C   5.87364544004382     -0.03478650355341     -0.11451119899392
  N   7.09780560649108     -0.21166389667244     -0.51565066672517
  N   5.15090122481678     -1.15972882829487      0.25926317050093
  C   3.85207722433172     -1.07710664515972      0.32221768976494
  H   2.13910908269381      2.50367143032575     -0.10653137660549
  H   4.20055423023334      6.02109148490441     -0.28576188903213
  H   7.73263028184689      5.80901941064356      0.38544749528777
  H   7.69257359018527      1.80846156236571      0.50413866327514
  H   7.45647908583551      0.64437909230178     -0.92648089794896
  H   3.31376625038461     -1.98805792149787      0.57925602130998
