20
Coordinates from ORCA-job 15733optt
  Br  5.48510825817283      0.67805527579129      0.43406537722872
  C   4.42546802268331     -0.88319023069441      0.67813563233086
  C   3.04722471460758     -0.77010076835778      0.58231223717170
  N   2.11305935569011      0.24699930064865      0.77486310266332
  N   1.01252541589876     -0.24086444183423      1.49875130516709
  C   1.14867968804963     -1.56366292073272      1.49726409799490
  C   0.90030938758241     -2.63882827611859      2.49601293273470
  C   -0.10567122279965     -2.68446304357528      3.47636601465005
  C   -0.96949783083707     -2.72574246400801      4.31659593239040
  C   2.06444306793914     -3.44286577199178      2.39131314266738
  O   2.88802484630959     -4.08875600733576      3.25840954790260
  N   4.24906045753226     -3.78361914907454      2.87642903966252
  C   4.16670344123910     -3.12252945305930      1.74083724176672
  C   2.84412618495218     -3.05457278558986      1.30432512720782
  C   2.29349286530496     -1.92942787827775      0.74194642372653
  C   5.12247815423650     -2.11840702449608      1.14664101801060
  N   6.38583522399912     -2.31654189171761      1.18118477245360
  H   2.38271184185795      1.18534050534610      1.01943322115098
  H   -1.72529856467717     -2.76100999606375      5.06148308477985
  H   6.88021669225846     -1.51481297885857      0.79063074833964
