21
Coordinates from ORCA-job 15734optt
  Br  1.04315985255423     -0.14588973182627     -0.06720873938552
  C   2.91801077493626      0.00583978864161     -0.06596293184877
  C   3.58777431007572      1.20284471737644     -0.06496147988080
  N   4.96407986190793      1.16132448440823     -0.06469521195360
  N   5.54122010486601      2.40023559744232     -0.06389379826063
  C   4.51070539673413      3.23663451953392     -0.06356725508455
  C   4.49254921903076      4.62230649010830     -0.06287155016156
  C   3.25331313143878      5.30940663882827     -0.06254415594934
  C   2.05375885165300      4.54815360983773     -0.06279344170443
  C   2.05354651858551      3.19258516759857     -0.06354685870348
  N   3.28626704109171      2.52023610293424     -0.06411168618610
  C   3.19694697259248      6.71948015609038     -0.06191044784217
  C   3.15496647589687      7.92779460834723     -0.06130347337828
  N   5.68323338357334      0.07045509614601     -0.06514429968910
  N   5.09990688713065     -1.06589396513389     -0.06582717976406
  C   3.69220906910977     -1.20890707229990     -0.06629037659719
  O   3.20791362613176     -2.33033663542370     -0.06698499107041
  H   5.43350533281683      5.14993759421690     -0.06256937951218
  H   1.10228015818228      5.06172104008409     -0.06233976571457
  H   1.17109133799909      2.57877691419014     -0.06368254668428
  H   3.12256169369285      8.98929487889938     -0.06079043062897
