23
Coordinates from ORCA-job 15741optt
  Br  1.75235008874557      0.46770510660757      0.07202111422613
  C   3.15066320897814     -0.69989542373100      0.60180707290977
  C   3.75488213497905     -1.48165656008157     -0.35131463460185
  N   3.53559476260060     -1.52859110786172     -1.66863034767653
  N   4.41974568400841     -2.33611048374440     -2.31078410650664
  C   5.19496440830774     -2.84616024373819     -1.40096689918119
  N   4.78238418377723     -2.36722831397273     -0.07995195947268
  C   5.10981392384481     -2.57524314301844      1.32496298190055
  C   4.51729692941074     -1.54414923035158      2.17762026120980
  N   3.58982922936237     -0.69901402739383      1.85406701907323
  N   5.77920485224186     -3.45391282978025      1.98031207146543
  C   6.36745646527199     -4.64856413302956      1.55774968644624
  N   7.15738337932144     -5.24280851386441      2.36479052666608
  C   6.02539818556094     -4.98047395857729      0.16859993562913
  C   6.89548359307837     -4.44262238601761     -0.75225673292135
  C   6.41934199832872     -3.57523971948525     -1.76473990462906
  N   6.95644135584396     -3.26799204174095     -2.93463134623346
  H   2.92579094359691     -0.91451359310482     -2.17797614551568
  H   4.86885256091629     -1.56621894211866      3.19949796201109
  H   7.45620323613915     -6.10650832861153      1.91336760745995
  H   4.96487971772205     -4.93044062843987     -0.06255362825227
  H   7.97053010267386     -4.52725620766430     -0.60576854635207
  H   7.76750905528971     -3.87310529027957     -3.06322198765464
