22
Coordinates from ORCA-job 15740optt
  Br  1.23490372835801      0.63002496085952      0.06233471496394
  C   3.06442033995892      0.18183373717766      0.06294384677820
  C   4.00448477667313      1.18558999939655      0.06320508889026
  N   4.07237536763711      2.54159788849562      0.06309541998278
  N   5.38547106930364      3.02250390607177      0.06362860290582
  C   6.11618314540136      1.93699192667988      0.06394102441153
  N   5.29238439302610      0.83411721835514      0.06369054268531
  C   5.90661007478376     -0.39492538353810      0.06397348014644
  C   7.28864400767468     -0.06935150999358      0.06440288783803
  C   8.58538635876665     -0.63588172513962      0.06481047078056
  C   9.49502389350461      0.42137330389493      0.06537194320439
  C   8.80483247309223      1.66326157052342      0.06502991271569
  C   7.44623153302368      1.37294685868977      0.06445886803372
  C   5.00982690996437     -1.50763763079617      0.06375086195472
  N   5.36746810859339     -2.75396251186379      0.06402859305598
  C   3.48611710912133     -1.20607062212437      0.06307606221601
  O   2.69376431322140     -2.13167135018459      0.06288444876433
  H   3.30042696320399      3.18079998732229      0.06296173275315
  H   8.83453371053582     -1.68629445040085      0.06485796723316
  H   10.57085234281556      0.31665181990016      0.06589548311909
  H   9.26155641955962      2.64118209241682      0.06522286171577
  H   6.38850296178060     -2.79908008574248      0.06443518585114
