21
Coordinates from ORCA-job 15746optt
  Br  1.10714872767669      0.30364167569731      0.08641246672495
  C   2.99476679827879      0.06249186176546      0.07531196678467
  C   3.81680170162951      1.19365428670885      0.06924798746427
  N   3.25368827878073      2.40752867464276      0.06827762809115
  N   3.81464594180756      3.67918652658112      0.06474629853130
  C   5.12450148714729      3.55236148811507      0.06240778613491
  N   6.06417493773331      4.54966556336171      0.05975458034804
  C   7.35028658051246      3.96853049349869      0.05882258833652
  N   8.47948815319232      4.59400528268206      0.05715378052749
  N   7.19469258763409      2.60448922453981      0.06020020181981
  C   5.87844095421251      2.37798118235644      0.06236539678311
  N   5.21243716492550      1.12273422425754      0.06440326252982
  C   5.96697379409321     -0.06759452641147      0.06390559195771
  N   7.22363853339916     -0.15424380220366      0.06338513035164
  S   5.14059851047111     -1.63298235946621      0.06165078427828
  C   3.39083052087119     -1.29396070813844      0.07178559664370
  O   2.66255645456638     -2.26876669290327      0.07458378265500
  H   2.24790994904185      2.42112511967773      0.07125275682455
  H   5.86473108639207      5.53285590369204      0.05951203176841
  H   8.31854391823604      5.59781938892796      0.05666533597040
  H   7.67714391939818      0.76247719261849      0.06315504547427
