21
Coordinates from ORCA-job 15748optt
  Br  0.95005285997945     -0.06183227110415      0.01036881470354
  C   2.83082922540910      0.03765521653522      0.01090796022683
  C   3.46303191887087      1.27462366480854      0.01131861240442
  N   4.84280139929417      1.29553688781414      0.01151894348673
  N   5.38898681196718      2.55431677543883      0.01188309254234
  C   4.33508538648585      3.31775612275280      0.01193243690123
  O   4.44439741502500      4.65610657967209      0.01225030619889
  C   3.27551194051583      5.38838495091826      0.01236136738506
  C   3.48647182993729      6.79902386060346      0.01273094689023
  O   2.59438336384011      7.64509146180665      0.01294804934284
  C   2.02371139856809      4.76737455345175      0.01212860081711
  C   1.89674727035163      3.39551871689158      0.01173149679614
  C   3.08640256408785      2.63974974983243      0.01161012609982
  N   5.62492657662878      0.23602367204496      0.01142521122751
  C   5.03022483146497     -0.91545062900492      0.01109892290754
  C   3.58301221678572     -1.16843176838181      0.01079837875300
  O   3.13591793818836     -2.32155850928654      0.01034896477687
  H   4.55102299137605      7.09376411243225      0.01279690060897
  H   1.16800414023680      5.42741430301789      0.01226647004587
  H   0.92783880806365      2.91795426623517      0.01154614833004
  H   5.67663911292321     -1.78502171647862      0.01102824955503
