23
Coordinates from ORCA-job 15756optt
  Br  1.79860510131184      1.25671106603482     -2.79974227711782
  C   2.73737660286651      0.63227768549197     -1.28141696118643
  C   3.35045750153246      1.56228366776164     -0.43567855707037
  N   4.15983522500093      1.05907735462626      0.50039246663070
  N   4.21996791324134     -0.28038764009840      0.83255104567997
  C   3.10993993182731     -0.92779334959468      0.46719965969771
  C   2.19365621266709     -0.43379925076421     -0.46098314688582
  C   0.71360163095988     -0.37329528500187     -0.21029491358286
  C   -0.10069004237871     -1.52014036393981      0.04396310426848
  O   -1.27790565853965     -1.49329370441222      0.38139185237924
  N   0.31646973039526      0.88027721934446     -0.06866044358705
  C   -0.74071644874824      1.54169866851176      0.28619743901987
  C   -0.63246359920039      2.99916614818551      0.38232987541056
  O   -1.57046826180844      3.76025893622963      0.49984996800688
  N   0.69816932850649      3.58504203340829      0.27514591959158
  C   1.80421279252464      2.80060433051033      0.36187773561288
  N   2.85657931435851      2.87225447691743     -0.39534810953763
  H   4.55182001311619      1.67839042446634      1.19356003091522
  H   2.91533980766088     -1.83950888548588      1.02600158482452
  H   0.41696824661003     -2.49537952071842     -0.07691366415723
  H   -1.71668207234303      1.11429244966810      0.49792216105212
  H   0.73577860524775      4.33035479086855     -0.40925836165182
  H   1.73114812519134      2.06590874799038      1.15891359168729
