21
Coordinates from ORCA-job 15750optt
  Br  1.88877144747234     -1.36924663398047      1.27818096443092
  C   3.44513955198753     -0.71288780061326      0.45249587206060
  C   4.45030204445053     -1.57744436217145      0.07257026023389
  N   5.56924841200179     -1.04639340794044     -0.54617975711885
  N   6.51707358170389     -1.97202738951001     -0.88524385655989
  C   6.00052000428404     -3.09823725192437     -0.47889917560102
  O   6.67311123766674     -4.25767612844475     -0.52219097992830
  N   5.89986736611589     -5.24974951781596     -1.40106780699500
  N   4.93442986431428     -5.71716811454216     -0.88165646231769
  C   4.32749449712968     -5.41411388550154      0.39848750562414
  N   3.91231233413723     -6.41645880635094      1.11100256601640
  C   4.01744686806351     -4.05955358930551      0.67151425735427
  C   4.70440841650101     -2.98401654171966      0.12263224245696
  N   5.76394350775584      0.23071786510517     -0.80391561950578
  C   4.82627464164089      1.04090438997374     -0.44022994432419
  C   3.56726099598500      0.69487597608758      0.22577272819925
  N   2.67081072587612      1.56557839110965      0.57409884957781
  H   4.13082894621219     -7.28906523875687      0.63351513285749
  H   3.19073715541333     -3.90577190619618      1.34945110581731
  H   5.01033841974833      2.08740647543843     -0.66062685893478
  H   2.98367998153980      2.49832747705900      0.31228897665645
