26
Coordinates from ORCA-job 15758optt
  Br  1.23709931155968      1.00490096586358      1.68730423297376
  C   2.80373521849271      1.25157868053519      0.62130848627885
  C   2.71616139027429      1.21772316150904     -0.80638912863864
  N   3.97049953448701      0.89080911626899     -1.39476586906739
  N   5.06788567020091      1.56223077868119     -0.95029975477953
  C   4.94856727931131      2.22798067389952      0.14160831190534
  C   3.75894244288429      2.25092734967514      1.01538188769407
  C   3.56352467156497      3.25649714614742      1.91301545867864
  N   4.22960230712155      4.52100878899797      1.75235678318278
  C   3.61677328106295      5.51566688043015      0.97348205564555
  N   3.72875512201045      6.77492062246294      1.15198131705740
  C   2.82152451250542      4.94032256716111     -0.13833425571027
  C   1.65472845488233      5.32109690035540     -0.65571661301572
  C   1.00780435329722      4.33410940871267     -1.62581020074290
  O   0.64271849562695      4.66809996070706     -2.74156282956121
  C   1.05657121258527      2.99696339705827     -1.03792075798752
  C   1.83493245376366      1.99647164732348     -1.59045557175689
  H   3.98541105372359      0.83107365474347     -2.40151353873933
  H   5.82526743188495      2.77804634182872      0.45984825880853
  H   2.68676940843859      3.24518843946381      2.55012909211002
  H   4.68197658568679      4.90209719206665      2.57302448057299
  H   4.28367706070424      6.97113230355274      1.98627104467854
  H   3.22299263132429      4.00648864400309     -0.50118056634409
  H   1.16674648854051      6.25615750923783     -0.40097495637194
  H   1.00396247286069      3.01513519617570      0.03984375289740
  H   2.01537115520532      2.01537267313884     -2.66363111976843
