26
Coordinates from ORCA-job 15754optt
  Br  5.59586883632333      3.08377670467118     -2.30476660726241
  C   5.74630787134368      2.17684708406240     -0.63396770736994
  C   4.58163231098358      1.89176240394391      0.11451786078076
  N   4.63847611248376      0.70554065001774      0.82279719667593
  N   5.71743918766514     -0.07535812598465      0.93535680786313
  C   6.82952934492177      0.37239221309442      0.45756748026360
  C   6.99147782001246      1.65270806033606     -0.22879782276293
  C   8.22650850443751      2.25452489405710     -0.39880161141462
  C   8.40459141800667      3.69369109286973     -0.42374048515622
  N   9.53303146504179      4.25284727640972     -0.70730321712781
  N   7.27152423373549      4.38963140658720      0.07036546329857
  C   6.72793523684382      5.36936393322091     -0.49811789240168
  N   5.46062186675425      5.82405137544931     -0.07884776349444
  C   4.70544378759086      4.74023214844345      0.46422977188824
  C   3.64918490081345      4.13759619424552     -0.07742465760600
  C   3.42705927678675      2.71042473782692      0.30338852532295
  N   2.35348419921038      2.19212010938769      0.87405718792074
  H   3.81082886342871      0.43612096328700      1.33286146736682
  H   7.69496265747756     -0.26579502161738      0.60318395589533
  H   9.13380766319853      1.66767631878100     -0.32885097284742
  H   9.47129965749934      5.25126011907021     -0.51299116024867
  H   7.12917501435977      5.88425383100590     -1.37842866915134
  H   4.98448074228971      6.31057247140138     -0.82605743076918
  H   5.22967627387735      4.25099297430780      1.27076859282919
  H   3.11710337400736      4.57059244203513     -0.92174464464950
  H   1.67154938090683      2.92717374309030      1.04074633215686
