28
Coordinates from ORCA-job 15762optt
  Br  0.99121316457165     -0.05166743403618      0.22259482781608
  C   2.87774775180577      0.09191435355748      0.13492372449738
  C   3.48494515089119      1.29437771495018      0.12754396466969
  N   4.82986090242370      1.43372938742413     -0.17337958679700
  N   5.66728265321460      0.30639067385793     -0.28566219143056
  C   5.03145064883675     -0.88308740578503     -0.26376034586710
  C   3.66279469991608     -1.14615954018141     -0.06534341233231
  N   3.04529333594369     -2.30914037783071     -0.02626256211447
  C   5.58379401343467      2.58311285045520      0.31362231407651
  C   5.39782472886808      3.88279685098788     -0.47206467933449
  C   4.02813122528019      4.53903078927783     -0.35251080847776
  C   2.88872779034286      3.57484315837589     -0.65392759364198
  N   2.81613387232847      2.51699051593261      0.34856940922234
  C   2.10079321160586      2.72884459487340      1.48837996624198
  O   1.48030232809526      3.74213646921714      1.72324833514188
  C   5.41026038076565      2.73450053376365      1.80698145107547
  O   5.52774591617893      3.76855471393739      2.41448694752156
  H   5.70195048325203     -1.73037790981621     -0.36687430338978
  H   3.73363837922735     -3.04280929217587     -0.19100930538117
  H   6.61797510910405      2.25985104332955      0.16876348093212
  H   5.60931518349584      3.64841436800331     -1.51855018388280
  H   6.16062754264646      4.58375975144231     -0.12742381506761
  H   3.97165630994374      5.38581247472140     -1.04171162402839
  H   3.88516335281462      4.93110856340079      0.65652786307789
  H   3.02099095098696      3.09753156627894     -1.62641951433034
  H   1.93270228913055      4.09670694557286     -0.63812147703255
  H   2.15406580142054      1.87828001954973      2.18103549384740
  H   5.15561282347436      1.78755462091576      2.32334362498801
