23
Coordinates from ORCA-job 15763optt
  Br  0.73786804038096      0.72267824152642     -0.01753533737256
  C   2.61860514438303      0.51085288073493      0.21092060543630
  C   3.43642224323753      1.65105424899924      0.17936954170377
  N   4.84445193107146      1.40402786829078      0.11455633205212
  N   5.38960017281243      0.28481809948299      0.70378663933538
  C   4.58976484263646     -0.68805903751057      0.87049176668050
  C   3.17944263203127     -0.76847196223683      0.42899496349586
  N   2.76719161964951     -2.01289435001907      0.35608115455527
  C   1.49146288243675     -2.34793309779200     -0.21299322992851
  C   1.41817580906940     -3.80324821357665     -0.44609497034545
  N   1.31459540568967     -4.92715476062251     -0.64862820466133
  C   5.70853624935193      2.30103197827939     -0.44268667424000
  O   6.91135344749449      2.17194445483183     -0.52802550985998
  C   4.96194188568276      3.51489432610375     -0.94795850790005
  O   4.01439923978803      3.95574414760445      0.00308706275050
  C   3.04931863123278      3.02839625803113      0.35697293718713
  N   1.94067972736258      3.44602649434192      0.83454984368637
  H   4.99578117932373     -1.58235468006374      1.33011717796050
  H   1.30207120546559     -1.86384143011550     -1.17842862311621
  H   0.63869714577046     -2.09233220498157      0.42632668171985
  H   4.46621582777238      3.27362511618940     -1.89664218745721
  H   5.67707878842937      4.31838691931899     -1.09960889530659
  H   1.92734594892738      4.46280870318322      0.77834743362434
