23
Coordinates from ORCA-job 15764optt
  Br  1.01115861261689      0.07024798829610     -0.07226651844842
  C   2.89728514663798      0.04827668846380     -0.07163741965536
  C   3.58715256367236     -1.15565237952375     -0.07122887675848
  N   4.97208098706957     -1.10641572421844     -0.07094558812989
  N   5.68478086038786      0.00917162667401     -0.07099786833688
  C   5.03341297386564      1.12368162387462     -0.07129528098871
  C   3.57990136221999      1.29775781770086     -0.07163198518738
  N   2.99523371146096      2.46078506213528     -0.07194534755858
  C   5.53940145313803     -2.40264640476722     -0.07058897319035
  C   6.94040780693605     -2.64971536056303     -0.07015635375333
  O   7.46928590234679     -3.75424339813996     -0.06979761264232
  C   4.44304125877906     -3.25222819431404     -0.07065218744666
  O   4.51988232063590     -4.59832445371907     -0.07037163196553
  C   3.32323235481555     -5.27845618761565     -0.07037958055446
  C   2.11389898033415     -4.65104635513435     -0.07070395142215
  C   2.00009897118253     -3.25294407842296     -0.07105344653987
  C   3.22953333045517     -2.53857070964751     -0.07100712052151
  H   5.64941389073033      2.01770943844397     -0.07132585239652
  H   3.70232584934214      3.19281267120000     -0.07187624017854
  H   7.55767765342795     -1.73422887547412     -0.07007536672474
  H   3.47764556521244     -6.34481822848492     -0.07009404780954
  H   1.23127223473916     -5.27715430994883     -0.07067875560299
  H   1.04387620999348     -2.75899825681478     -0.07128999418777
