19
Coordinates from ORCA-job 15775optt
  Br  1.13354854360008     -0.24404634226158      0.01074055216716
  C   2.99446029936387     -0.07306304399956      0.01142295655964
  C   3.66234824328613      1.11810395641274      0.01253127877665
  N   3.24105518484338      2.41542939386976      0.01395663195536
  N   4.27875858275915      3.28666613378219      0.01459230145123
  C   5.37567292717176      2.54277168141962      0.01386194429870
  C   5.07671197572047      1.16319781280525      0.01264075925254
  C   5.80790233913397     -0.05312152986836      0.01152092452260
  C   7.21916209367859     -0.09279367864948      0.01152140085753
  O   7.96036503510403      0.89783240626262      0.01267170909285
  C   7.85397029338458     -1.46837089399023      0.01007754814649
  O   9.03081076426182     -1.68490986244682      0.01043355182209
  O   7.00895553906993     -2.55809864899478      0.00808878792061
  C   5.65608401969350     -2.45848646674159      0.00795296969712
  Br  4.77862878923836     -4.11642333002697      0.00470498934558
  C   5.03907311622638     -1.26915245723326      0.00987408698711
  O   3.65514176960192     -1.26130275474164      0.00994122910470
  H   2.29741647393634      2.75442791417609      0.01318077761819
  H   6.35393400992570      2.99233971022599      0.01428560042382
