28
Coordinates from ORCA-job 15778optt
  Br  0.77254078033202     -0.49017985257102      0.20512012857732
  C   2.63201186932689     -0.08922833782588      0.15583788173081
  C   3.52417540838528     -1.16820654360347      0.15358174771330
  N   3.23095930186995     -2.49086658032269      0.16620562146064
  N   4.32416260605489     -3.29553054975691      0.17108994523877
  C   5.34660265779759     -2.45766150438653      0.16138824088775
  C   4.93748614334814     -1.09601556343690      0.15451154266334
  C   5.64437727829043      0.11451732581479      0.17381787940524
  C   7.13255931385518      0.16972541725570      0.09046029386835
  C   7.66797517933658     -0.06670102481860     -1.32915684447788
  C   9.18819758873951     -0.11066654006025     -1.38395020885898
  C   9.68999466369555     -0.35859294987686     -2.81023316019210
  C   11.14872360427097     -0.41357727096967     -2.89603843550417
  N   12.29383953742694     -0.45243643768494     -2.94203965816500
  S   4.78209961786448      1.62250599923249      0.00012654215042
  C   3.00734390569543      1.26578164822084      0.10974155356822
  N   2.20393071833773      2.27606814280817      0.11156286526858
  H   2.30721386984206     -2.88497057241644      0.17457261790612
  H   6.35406944346506     -2.84752447238707      0.16221044109179
  H   7.55594057047122     -0.59782309728798      0.75202975106090
  H   7.50320194359266      1.13382576654142      0.45620317539972
  H   7.29063104053534      0.72369623113087     -1.98512556010978
  H   7.25504560133086     -1.00865402922464     -1.70376368442654
  H   9.56275065706667     -0.90259570013937     -0.73052366741475
  H   9.60775354282633      0.82825693336868     -1.01377524567607
  H   9.34031335185462      0.43224487718359     -3.47700814229521
  H   9.29157491948436     -1.30074369973757     -3.19250461037533
  H   2.71552488490312      3.15335238495024      0.07965898950456
