25
Coordinates from ORCA-job 15772optt
  Br  1.57877417535286     -2.48413422923203     -1.13050778760148
  C   3.27202978114785     -1.67954624418245     -0.78198744534103
  C   3.63473608249305     -1.19646403757121      0.48125816258584
  N   4.64692158651065     -0.19190520397657      0.45067539482708
  N   5.78776519914417     -0.57964640324445     -0.25557733194592
  C   5.55511368838727     -1.27878997340487     -1.29835306021281
  C   4.18797668264404     -1.59607446274848     -1.84254572630575
  O   4.04715957444860     -1.86276859371911     -3.04429803201564
  C   6.64852130769416     -2.24694853204631     -1.65506593939628
  O   7.73966002627261     -1.98799951605762     -2.08643126868738
  C   6.19718955573602     -3.65590235530747     -1.26912536840947
  C   5.65509506886388     -3.78460348677261      0.18336173658105
  N   4.42070712686603     -4.54539353610953      0.22517259912491
  C   3.39487103122357     -4.25459474334356      0.90445491085705
  N   3.03078667024860     -3.19053472595179      1.72856481924983
  C   3.35494744397051     -1.82401772645303      1.74788246706831
  N   3.34098436833995     -1.25987293300341      2.91490704296102
  H   4.95553325155976      0.06404460279819      1.37839145524259
  H   7.03344198394521     -4.33039455436705     -1.44803504750918
  H   5.38705433567512     -3.92101478643370     -1.95312775917305
  H   5.58887853491708     -2.80888533720798      0.66554660315619
  H   6.38274561537066     -4.36395352097732      0.75810242929275
  H   2.59888351196280     -5.00068478991910      0.89825133683747
  H   2.34958013026408     -3.43310057184654      2.43187004952698
  H   3.39864326696132     -0.24981433892190      2.80861575928693
