29
Coordinates from ORCA-job 15777optt
  Br  0.70781638540836      0.36209713024351      0.59103094487935
  C   2.57026758588035      0.16604877118977      0.30966654477822
  C   3.45277165882763      1.03091656490662      0.89228491107316
  N   3.16619968610325      2.10661422878114      1.68637787600259
  N   4.27268686648384      2.73835518081856      2.13255856942147
  C   5.28269087117921      2.08114692104000      1.58697884766761
  C   4.88122627571447      0.98274214155059      0.76783387326259
  C   5.56186084658357     -0.00720272528570     -0.00368570773613
  C   7.05689073376815     -0.03983203570981     -0.29160873144964
  C   7.33893545891794     -0.02354607208104     -1.81461522884142
  C   7.19568620096884      1.37607263292947     -2.38148179430699
  O   8.09560323534284      2.28316438992943     -1.76661156921449
  C   7.80058363461114      2.39910903739227     -0.38636231154603
  C   7.93702069374160      1.05618908284345      0.32461399541145
  C   4.87848366419850     -1.16803542541863     -0.47789089254344
  N   5.34582279515217     -2.27302887042073     -0.97939597187113
  S   3.08005742051966     -1.26361508048852     -0.52340930373273
  H   2.25919406521119      2.36335672623498      2.02897163017905
  H   6.27447566247797      2.42540660828183      1.81946740488900
  H   7.44607589368201     -0.99051028184572      0.09916624247753
  H   6.65624465055700     -0.69364785408101     -2.33731989820155
  H   8.36318048433725     -0.36786210641901     -1.99930198838867
  H   6.16496389749860      1.72699682077640     -2.23522522305242
  H   7.42135531447892      1.39441778863978     -3.44846716398543
  H   6.78828476267196      2.80033391538642     -0.27251347744051
  H   8.50694204539432      3.12437921323682      0.02200576133628
  H   7.75258541572951      1.15731916137759      1.39331573936265
  H   8.97981378973730      0.74104733851401      0.21345337560294
  H   6.36028000482193     -2.27343320232253     -0.97783645403329
