23
Coordinates from ORCA-job 15788opt
  Br  2.43524503922303     -0.35009559122214      2.21857255977922
  C   3.30875472983469     -0.17336482889725      0.53867093631929
  C   3.95118112736667     -1.23897888388176     -0.04008629263792
  N   5.02769230662014     -1.00067329386226     -0.91899309568045
  N   5.49367560491099     -2.15961444889007     -1.48995576329745
  C   4.75503081546517     -3.11195651533147     -0.98049921000067
  C   3.77148980709069     -2.67049991942110     -0.02285843188147
  N   2.87344048953182     -3.34587225920295      0.67319430341286
  C   5.87284762534278      0.08585578391205     -0.73851123200179
  C   5.39715124593241      1.26286468827449     -0.30800095202561
  S   3.66860191376289      1.44724295660140     -0.04696469673828
  C   7.35929437546684     -0.10817519542509     -0.66720220338464
  O   8.15273397615730      0.72664507736100     -1.03320110216123
  N   7.76092404452745     -1.29344514315146     -0.06493602633432
  C   8.58350378613590     -1.29527756861264      1.11102337506760
  C   7.16933522222762     -1.78741566427939      1.14678275355545
  H   4.89853097322155     -4.13254159944747     -1.31027264184834
  H   2.95863256948095     -4.33291208553337      0.43120639958051
  H   6.07782210883664      2.06050190728568     -0.04387371868275
  H   8.79208925386401     -0.33136468993204      1.56248308407911
  H   9.40489054263508     -2.00070609609269      1.11745680077809
  H   6.43204356677268     -1.15741526611085      1.63550574650518
  H   6.95308887559213     -2.84780136414049      1.16045940759760
