18
Coordinates from ORCA-job 15785optt
  Br  1.23929469831410     -0.65188328690486     -0.31541220887187
  C   2.96823032470194     -0.08685706084323      0.20382526313369
  C   3.38265054812459      1.19653019943860      0.10479049098480
  N   4.76529852627932      1.44163468305060      0.16452710931187
  N   5.05476090387982      2.79181599123392      0.05736290705573
  C   3.86882173451886      3.39489621377371     -0.02324152746397
  C   2.73436568804663      2.49800278149605     -0.06438478938923
  N   1.44861389056001      2.66576786716376     -0.16502864937754
  C   3.79196534329179      4.83504345596603     -0.04601744127263
  N   4.82621711793805      5.63606763917114      0.05359107840997
  O   4.26655780961808      6.91237139369087     -0.01548071170465
  C   2.96223753584747      6.74051625334304     -0.14649795643311
  N   2.58460185573735      5.51711080477045     -0.17460885874676
  N   5.60223922205362      0.64008385614666     -0.62047012281498
  N   5.47341802318079     -0.56959502570413     -0.60927995792375
  S   4.21538844084495     -1.24826313532634      0.48117254643341
  H   1.25129353154595      3.66149811144028     -0.22791080325646
  H   2.34904480551664      7.62625925809339     -0.21093636807452
