21
Coordinates from ORCA-job 15784optt
  Br  1.37505555253870     -0.39769499797154     -0.40059986886383
  C   3.23306533277807     -0.14367250736397     -0.21926458764532
  C   3.78127327569555      1.16381872033386     -0.15907726028178
  N   5.15562333022786      1.40032074627723     -0.03199688945704
  N   5.48036966697149      2.71227216970666      0.01306874739428
  C   4.34924062722269      3.35210456921807     -0.08247296931423
  C   3.19828400861506      2.48172112740083     -0.19646549082208
  N   1.92329565533835      2.79799015756935     -0.30782641501587
  C   6.06553880650885      0.36522781778075      0.04754386269923
  C   7.42429041228357      0.22275371263082      0.16559613091097
  S   7.85983305716288     -1.46685381482394      0.19649864475819
  C   6.23306874142384     -1.98152759924991      0.05086061414464
  C   5.45798567831899     -0.88503758571717     -0.01086852922809
  C   4.07892417055375     -1.25115472026611     -0.14560452195261
  N   3.95698262390210     -2.58001618969712     -0.16925194428401
  C   5.24878443770886     -3.11972346560027     -0.05119461450169
  N   5.57508584638097     -4.35550261604577     -0.02984913476639
  H   4.33071218392092      4.43255796169442     -0.07145950352248
  H   1.84813047827667      3.81558532299377     -0.30054498172568
  H   8.18619185309407      0.98048097851341      0.23963218921481
  H   4.71726426107671     -4.90164978738338     -0.11672347774104
