25
Coordinates from ORCA-job 15780optt
  Br  0.64896624528222     -0.60005545702953     -0.40506278703983
  C   3.05963260641395     -0.14590828993869     -0.58641792960209
  C   3.81760968799107     -1.28396348747448     -0.49972683857005
  N   3.58647876396732     -2.55979907673538     -0.95593628139889
  N   4.57567448685343     -3.38073739972526     -0.62538009298660
  C   5.48220164735469     -2.66967078115647      0.01238040944199
  C   5.06713629262578     -1.30451329985171      0.15639730842933
  C   5.54587701053395     -0.16200586766523      0.77512826657135
  C   4.77007446856237      1.02693498285014      0.75090012646477
  N   5.01515156033084      2.19166758172123      1.27681662074640
  N   3.54433107392969      0.94705840999104      0.02806164521437
  C   2.71297762828116      2.15138854635148     -0.01812939053084
  C   2.17591329717823      2.57580612154034      1.35553744317343
  C   3.00888037652700      3.53375043771543      2.17383354138660
  O   2.93320259432570      3.58362251610899      3.37503359198252
  C   3.36792494688471      3.25962819881816     -0.73969523886090
  N   3.75667008347339      4.14057646507937     -1.36161560147591
  H   2.71598296642824     -2.91181422393929     -1.31616603974263
  H   6.38588671205712     -3.14230492325989      0.36267024375379
  H   6.48604085540575     -0.14288057426604      1.30804636655382
  H   5.90114526391158      2.17940046336639      1.76899872243947
  H   1.85721698277898      1.86238421783937     -0.62801730511696
  H   1.96484712852845      1.67894975643524      1.93752307087079
  H   1.21776175156204      3.07990220278843      1.18852482574136
  H   3.59141556881220      4.27258348043635      1.60329532255470
