26
Coordinates from ORCA-job 15786optt
  Br  1.22371180548381     -0.18649376039640      1.29790496633349
  C   2.74756523607073     -0.08722588288608      0.15630486577875
  C   3.44688397789661      1.07896435405587     -0.00472627142925
  N   4.78820491663760      0.98335127599054     -0.40714051123342
  N   5.41296926882789      2.20411390093997     -0.43952508740380
  C   4.47272140245188      3.06836713472825     -0.13045125723972
  C   3.18943258929742      2.48931514255901      0.16854550264647
  N   2.03341924116577      3.04349813448844      0.49913338686343
  C   5.49409064797459     -0.19000773386667     -0.18554137036071
  C   6.97878972631774     -0.08643771337791      0.01517385685166
  C   7.71887460936077      0.19643132169635     -1.21627719167054
  C   8.33491118961873      0.40228975597688     -2.22239227503632
  C   4.78933379312873     -1.32520938963355     -0.06915644577750
  N   5.36096889194638     -2.58982284571301      0.20368719211658
  C   6.14243764424188     -3.32293915898105     -0.66171031870257
  N   6.72591357975859     -2.97358349232148     -1.73143863720717
  N   3.37286137283196     -1.33026992188711     -0.14851773683172
  H   4.70458120870912      4.12510087135336     -0.12696455716185
  H   2.16198559655631      4.05491941767816      0.52372138012746
  H   7.33812232166670     -1.02858063391016      0.43244389167651
  H   7.17791133065504      0.71738801397936      0.72751958723454
  H   8.86812839121559      0.59183659602029     -3.12144571201273
  H   4.81823413444523     -3.13178072139271      0.85996072843016
  H   6.26693600423776     -4.34907455763281     -0.31206809753998
  H   6.55296418395150     -1.99369120554496     -1.95964707116054
  H   3.04504693555159     -1.73945890192256     -1.02139281729121
