24
Coordinates from ORCA-job 15792optt
  Br  0.92860230452635      0.11438857092067      0.37021181818785
  C   2.77999310789887      0.16372508886149     -0.20678644089346
  C   3.54717575891882      1.29684767456929      0.00466226593371
  N   4.89610288984525      1.13578240629388      0.35269770830373
  N   5.58761305676796      2.28110274349796      0.31200499680894
  C   4.69598739955961      3.21882636553408      0.10207326728735
  C   3.34962349743647      2.71295340297574     -0.10792369686813
  N   2.22247787189273      3.34148896443239     -0.36174156583680
  N   5.58128329141701     -0.04850693554177      0.20182698426761
  C   4.82145860089780     -1.06592002746931      0.08774829098087
  N   3.45473256133915     -1.07416776799269      0.09739875610803
  O   5.31674008695059     -2.32170353692200     -0.05395664143417
  C   6.64469708005777     -2.61604889163864     -0.00558649477111
  C   7.18393640283653     -3.87171843040257     -0.12661582471763
  C   8.59150802606560     -3.70583059964951     -0.01427944768525
  C   8.84097242374500     -2.37092885104934      0.16721759940139
  N   7.63986937325462     -1.71202197896380      0.17108612053010
  H   4.99441341247415      4.25739179174746      0.10082230525650
  H   2.40829950916924      4.34347469274374     -0.37436868493842
  H   3.05437672939053     -1.89875371335643     -0.32748587799202
  H   6.62773806464425     -4.78099117834743     -0.27401086904692
  H   9.33500621532964     -4.48380529450702     -0.06356618880052
  H   9.76350200291723     -1.83206444632842      0.29234342625791
  H   7.44389033266467     -0.72252004940775      0.26622819366043
