21
Coordinates from ORCA-job 15794optt
  Br  0.98198209393086     -0.05163337881533      0.16233299674248
  C   2.85011257082278      0.02147433701856     -0.00950908008698
  C   3.60922025344993     -1.14162707785716      0.02449355718675
  N   3.28841716572998     -2.44409349515360      0.16254572175439
  N   4.37353980418889     -3.26087380801195      0.13627020613670
  C   5.40932202267928     -2.46006118545378     -0.02300048933311
  C   5.00884602209081     -1.09647833338771     -0.10303035418600
  N   5.72904659433523      0.02034652229494     -0.26296901439761
  O   4.91029017948979      1.17844232564831     -0.27847965249171
  C   3.53965585471417      1.23053448346758     -0.16829223338676
  N   2.93798704792290      2.38651612113408     -0.20723925848619
  C   3.51734952678454      3.59144753850919     -0.38790584721700
  N   2.80046338302275      4.68074842404184     -0.34666139537121
  S   3.77653676006625      6.01542790294578     -0.62257110886573
  C   5.26655510510607      5.09078753925520     -0.81332858767983
  N   6.46653301809802      5.45495871586321     -1.05223143429483
  N   4.87403709166283      3.79036394325435     -0.64523877170444
  H   2.36644517207738     -2.82537254175347      0.27699663673082
  H   6.40698917986829     -2.86423209646746     -0.07750109613613
  H   6.52617984592604      6.46421040744636     -1.13860467243709
  H   5.53149130803314      3.02611365602104     -0.67407612247649
