22
Coordinates from ORCA-job 15791optt
  Br  0.98196788831925     -0.58594726177236      0.81400883120946
  C   2.73327292499188     -0.18392193068203      0.20243828974230
  C   3.63540576120024     -1.22659451984687     -0.03321129141280
  N   3.40975855971200     -2.55106367869553     -0.18862307216159
  N   4.54477870908478     -3.26479214369534     -0.42496572759454
  C   5.51225241862623     -2.37579654988513     -0.42920275598181
  C   5.03047310511511     -1.05577431302659     -0.19164345666555
  N   5.71538702615177      0.09485067422688     -0.15141068100795
  N   4.89600299925657      1.20919835466009     -0.01678583244279
  C   5.60982350804112      2.40777244185744     -0.11179877529164
  C   6.93604178099135      2.58781719162716     -0.45404266794789
  C   7.09645814927367      3.98507529005076     -0.44642332979268
  N   5.98250255535622      4.61904914482564     -0.12705960858098
  N   5.08421512418666      3.63761462414121      0.07109997951749
  S   3.46917395288108      1.17953502562290      0.92492034080538
  O   3.81678455454817      0.99907734273683      2.30984451969919
  O   2.74819865193263      2.39139395138750      0.60977904054095
  H   2.53103536849273     -3.02173229904864     -0.06993152082463
  H   6.53190935461668     -2.67822158916624     -0.60799165928664
  H   7.64473681632997      1.81067366896978     -0.66779705801053
  H   7.98768212044301      4.55349336303432     -0.66365119167312
  H   4.13013867044874      3.83629321267821      0.32644762716037
