24
Coordinates from ORCA-job 15799optt
  Br  0.92559329494160      0.12402591219695      0.58284981373557
  C   2.57650828204672     -0.05185335381623     -0.32986946910563
  C   3.39080266832369     -1.13322033397503     -0.13745131609375
  N   4.76551717056448     -1.01773571216125     -0.42182497191466
  N   5.44849742478310     -2.17450829828947     -0.10751803226264
  C   4.53436696438297     -3.03093116358082      0.26372298575670
  C   3.18837796794637     -2.49588547836897      0.32125521475183
  O   2.12668850534224     -3.06723714212689      0.64896437636869
  N   5.44746492855726      0.13097190344554     -0.19120703998094
  C   4.87218836346807      1.23970049638548     -0.42446933935049
  S   3.24152594652558      1.36667940993937     -1.12290835837978
  C   5.59620084242583      2.51157047257315     -0.08220491035643
  C   6.96789805271167      2.34235246955792      0.56863495932016
  C   7.70785739308498      3.63337715061652      0.19988777965173
  N   7.11011364633857      3.96952455197904     -1.07819979511908
  C   5.88542939856710      3.40795751307658     -1.29266844924644
  O   5.17550549198290      3.61523653866987     -2.24697858606599
  H   4.81197267279537     -4.04911019118724      0.49846253234053
  H   4.93445123855641      3.10765408989221      0.55838812644839
  H   7.46119102976970      1.48076847156564      0.12150860757871
  H   6.90838016868512      2.17839469861312      1.64193653028423
  H   8.78329145352239      3.48351388534003      0.10435743122352
  H   7.53395250083277      4.42140079404772      0.94108484136732
  H   7.43122459384501      4.71135331560671     -1.67775293095155
