23
Coordinates from ORCA-job 15795optt
  Br  1.14084947959760      0.01853399492305     -1.05388744255717
  C   2.64238091857853     -0.16169971608381      0.09198744701902
  C   3.47067328525653     -1.24821475849591      0.00739204584649
  N   4.80624359663954     -1.16245516205358      0.43850962151733
  N   5.45317568693876     -2.37246372962442      0.30710239567566
  C   4.56625625369979     -3.20684003225103     -0.17040830902149
  C   3.27262632758384     -2.62014954684891     -0.43440278152018
  O   2.24067511718696     -3.16204694135151     -0.87723509623270
  C   5.54360320552671      0.01978434667346      0.39585258597429
  C   7.00630055768102     -0.11675303136620      0.08216574806246
  C   8.02363205983091      0.90616107819004      0.63494472069421
  N   8.97080696573767     -0.20021092703464      0.87256818682550
  C   7.84687391174544     -1.16198900447520      0.85208641438661
  C   4.87866721195462      1.18298476116756      0.54919960194739
  Br  5.65532257308853      2.86171839522736      0.04956563408651
  S   3.18460206916831      1.21511640550667      1.01891029482119
  H   4.83103228994835     -4.24229163706693     -0.32991294060511
  H   7.14130451164201     -0.26049943987723     -0.99202248801876
  H   7.64704540126563      1.36584580624116      1.55417203933103
  H   8.38155525633117      1.68353967470193     -0.03756792621059
  H   9.46450468966671     -0.14608642369118      1.75475483332190
  H   7.41493604562136     -1.36266949609774      1.83633637986852
  H   8.04593258530985     -2.10331461631293      0.34988903478789
