12
Coordinates from ORCA-job 157optt
  N   -3.31473114531540     -0.34729532668343     -0.16404283333374
  C   -2.35006872258197      0.56508607448592     -0.06922636010832
  N   -1.09765242629470     -0.02782057482858      0.11631797353041
  C   -1.30120888419940     -1.38795272837787      0.08651445973266
  C   -2.66851576458428     -1.52607072782246     -0.05903928257603
  N   -0.60607590908396     -2.52626894053169      0.13197248579436
  N   -2.91175661387788     -2.89944113094106     -0.20897605687239
  C   -1.60656762023076     -3.49942856185806      0.14492741920455
  H   -2.49205530887379      1.63082724902876     -0.00790208096594
  H   -1.38968415298822     -4.44172322083658     -0.35551795665486
  H   -3.69749568236417     -3.27576386010597      0.29946643908661
  H   -0.21718776960536      0.45085174847108      0.14350579316271
