23
Coordinates from ORCA-job 15802optt
  Br  0.94269155920905     -0.20549626116141     -0.19983016431416
  C   2.82281227170258     -0.04956601309311     -0.08206039609822
  C   3.62908404725281     -1.17411951208827     -0.04529462843634
  N   3.07774011110123     -2.40184628281933     -0.07594796343416
  N   3.72988967710146     -3.60150363656898     -0.04358819543579
  C   5.02971000978582     -3.49843525034090     -0.00741055932479
  C   5.79180229267637     -2.31119802653335      0.02021748854256
  C   5.06880814675313     -1.06412029283025      0.02728478544127
  C   5.57400120522203      0.24712524446521      0.09625301796761
  O   4.71581576466991      1.32405262782942      0.06413202390217
  C   3.35331740248021      1.26581707611422     -0.02494398204588
  O   2.74990912095558      2.31465329358341     -0.04241667401832
  C   6.88450208152933      0.67979352824833      0.21287874864993
  C   8.04397428395442     -0.10569761035688      0.26602601430978
  C   8.22590008162944     -1.45288266303992      0.19423809006475
  C   7.26101670374595     -2.52868248278611      0.02517677309905
  N   7.67836446804198     -3.74700828439848     -0.11201030715707
  H   2.07484752857184     -2.47404009804772     -0.11573050175168
  H   5.56380144849040     -4.43655907237533      0.00398501864315
  H   7.00074471635725      1.75333107734468      0.26665353839156
  H   8.96033757256413      0.46909191784641      0.37108611836730
  H   9.25201469016836     -1.80236204278726      0.24451808776837
  H   8.69491481603666     -3.75734723620436     -0.07721633313109
