23
Coordinates from ORCA-job 15811optt
  Br  0.97579585905771     -0.26391355954265      0.16765416377556
  C   2.83759768981093     -0.05193292159002     -0.05011848987478
  C   3.68166538463585     -1.15546706047350      0.07344876843047
  N   3.43799225561822     -2.45618913973829      0.33305163976237
  N   4.56466767542005     -3.21902649126339      0.35053718487061
  C   5.54639133698618     -2.36134951739769      0.09271359108632
  C   6.95963907521741     -2.82601515901246     -0.00159395743262
  C   7.90119741419740     -2.22934269807493      1.06722886735631
  O   8.65726664923284     -3.33716732416284      1.56244244702306
  C   8.04698583061959     -4.50456667650460      1.21551557372317
  O   8.36086908021126     -5.56557492630886      1.68017404589558
  N   7.10303635262058     -4.24169260216328      0.26991978750302
  C   5.07600713351596     -1.04084607388290     -0.09699668761605
  C   5.60402514353363      0.21827827006273     -0.38839389385770
  O   4.75639984631818      1.29571552244450     -0.51393667638698
  C   3.36590461709522      1.22245303929618     -0.36490738033329
  O   2.75944186431043      2.26185345302305     -0.52200557858426
  H   2.54083041050710     -2.86990688717845      0.51263571474475
  H   7.34544920527426     -2.59299171891322     -1.00114034269445
  H   7.33315362167628     -1.78787455243862      1.88745935062312
  H   8.59252601547779     -1.49347967922219      0.66284806307329
  H   6.29595882484965     -4.84225502626648      0.19681595798838
  H   6.63619871381329      0.47029172930796     -0.56835214907592
