20
Coordinates from ORCA-job 15810optt
  Br  2.81938690278394     -0.70482088878588      2.29388422191266
  C   3.28808398312844     -0.11595805709354      0.55196920542716
  C   3.30541090370658      1.21107274800458      0.24083371879475
  N   4.07058971903382      1.61313329135099     -0.87377684802960
  N   4.02449014534908      2.99191451079185     -1.03811168910707
  C   3.20739817350917      3.43110705824833     -0.11936739020469
  C   2.82518773811399      4.87435500576669     -0.03335601779460
  C   2.58490313009769      5.53515045797460     -1.41087221895748
  O   3.55596073596980      6.59932601968623     -1.47463780366347
  C   4.21828849021711      6.54851632828248     -0.29658372031172
  N   3.90930340751149      5.68781787544485      0.56363470497756
  C   2.70787379570438      2.41494548226051      0.78553144862857
  O   1.92406914608303      2.55212471769914      1.74509744102919
  N   5.34697125784465      1.09545099479439     -1.05576063719915
  N   5.55472330916879     -0.09730127374697     -0.90755891144007
  S   4.16098126847460     -1.14777764537166     -0.51802992984561
  H   1.95427003342494      4.93092926103265      0.62188353663732
  H   1.59372311635728      5.97715201440426     -1.50718269360834
  H   2.77830265974573      4.84705563795252     -2.23063634376256
  H   4.99608208377544      7.29380646130393     -0.18296007348284
