25
Coordinates from ORCA-job 15826optt
  Br  0.75015204115848     -1.27192233061807     -0.46944389418203
  C   2.50828060082932     -0.61172435229907     -0.14980740029941
  C   2.69135919542738      0.66671875485335      0.28328183986543
  N   1.61053799358179      1.49338078265909      0.62968402460473
  N   1.49078692992325      2.77940702676062      0.09031216423131
  C   2.41865387214440      3.63196700848758      0.29596429481916
  C   2.13564066268622      5.01986945436596     -0.25023345028313
  C   3.00987013759759      5.37312733263041     -1.36729088362793
  C   3.71407972944154      5.65283446870264     -2.29595670791889
  N   3.61681465446326      3.55215728253558      0.97176394379219
  C   4.30016352509959      2.44784793415283      1.02565155672452
  C   4.03311239628844      1.13354347936517      0.55088862661108
  C   5.09891858250470      0.24590260704575      0.41487588537640
  C   4.96986163495726     -1.08407653195998     -0.03613926471309
  N   5.94627242872424     -1.94389767085284     -0.20610100501215
  C   3.58430582578634     -1.57447992413115     -0.34919744856523
  N   3.35583231147668     -2.76936354417195     -0.74546344745644
  H   0.73927489094548      1.02390231219439      0.43314888618496
  H   2.29065206197481      5.73912081916506      0.55759587284777
  H   1.09664044465817      5.06409079204158     -0.57415990966908
  H   4.34438465249274      5.88273571165339     -3.11988356312950
  H   5.28632045044494      2.55853242942309      1.48125887472746
  H   6.09669729038266      0.60481467602378      0.64994660720209
  H   6.83084031755977     -1.50159694772829      0.03900461829024
  H   4.25954736945084     -3.24389157029896     -0.79670022042045
