23
Coordinates from ORCA-job 15839optt
  Br  1.66164953506476      0.96797971777591     -0.76146941308877
  C   3.40837676171128      0.39596297257700     -0.32034233683560
  C   4.39795314513052      1.28213438013490     -0.00248738028541
  N   5.67063781406869      0.85177368300168      0.24603163590039
  N   6.78544819451390      1.65258528297464      0.36999176182444
  C   6.87298550666658      2.78275247852428     -0.32406946299983
  C   5.91388246171882      3.60094710200164     -0.93664009648086
  N   4.60433694362847      3.64980244612254     -0.71766496574180
  C   4.10014235301277      2.75192570255295      0.18357500167317
  N   3.33233003352263      3.02980517847284      1.16327379786093
  C   5.98545567328684     -0.53270747436093      0.39355603551268
  N   7.13584424263354     -0.96299042789140      0.74740307391395
  C   4.91897498100187     -1.44689364543525      0.05825881253289
  C   3.70115900037133     -0.99907225372399     -0.30988960301331
  O   2.64459024087244     -1.80100131793498     -0.71123081379823
  C   2.57768465721581     -3.12462043506579     -0.57230282277458
  O   3.38808174083556     -3.86665564131598     -0.10736545492165
  H   7.89807249448790      3.14202601079037     -0.37515726816955
  H   6.30970974336964      4.37109533826416     -1.59425650368904
  H   3.20831742143327      4.04404220012749      1.17932608493754
  H   7.74801153375915     -0.16423243390584      0.89623390003026
  H   5.16776767902075     -2.49202957193935      0.09272919253033
  H   1.60758784267340     -3.44962929174689     -0.97050317491792
