21
Coordinates from ORCA-job 15837optt
  Br  0.85245003147935      0.73144628690024     -1.64277144694459
  C   2.61632414207350      0.47015623620011     -0.95073896311041
  C   3.45502455648922      1.54308050140894     -0.70340114673551
  N   2.91044764319475      2.83194321861440     -0.90762838230469
  N   3.21563761896892      4.02332971865778     -0.37484050612914
  C   4.41338538796937      4.43193445650155     -0.20862326823460
  C   4.62018894273783      5.71946916058828      0.36687179260383
  C   4.81704029584812      6.79005831013211      0.87111632265374
  S   5.83907469215948      3.51666821375663     -0.83198737278381
  O   5.57227906901469      3.37707690224053     -2.24248029556203
  O   7.00348693755774      4.24438676389888     -0.42623463944765
  N   5.79493752290327      2.12304698773332     -0.07730319644558
  C   4.78483638072665      1.26691414092672     -0.21956346886208
  C   5.12470631671713     -0.12984103768096      0.19031174203946
  O   6.19969578394981     -0.38524900124584      0.73473766176346
  C   4.16171408016913     -1.16152360778382     -0.10881435730128
  C   2.96646790108539     -0.86812052369898     -0.67624875179160
  H   1.91372341393518      2.79138879490082     -1.04279148710420
  H   4.99293136277737      7.73937580363902      1.31477391272562
  H   4.43792721483070     -2.17600775660530      0.14515375837682
  H   2.24772070541214     -1.64453356908460     -0.90253790740575
