21
Coordinates from ORCA-job 15831optt
  Br  1.99018467246342     -1.08474924088113      1.36313325914557
  C   3.01752605295478     -0.34927970450831     -0.12155975161712
  C   3.35029520477439      1.00621307699386     -0.08836106971554
  N   4.68862539567745      1.34121518960694     -0.37572983064329
  N   4.92591458568913      2.68518474224046     -0.22550777607428
  C   3.77349447939055      3.21064712768359      0.04225221433518
  C   3.59775291688094      4.68821430643349      0.20427575857529
  C   3.26950658598065      5.37650486221008     -1.04680712072236
  N   3.03858970053840      5.95149439217488     -2.01081865394983
  C   2.69229270062482      2.25455920061974      0.15821602319508
  N   1.45112144495598      2.66090889091650      0.33367473084466
  C   0.41901818131510      1.66199366536087      0.28787104009452
  C   -0.88628594306232      2.26979700148315     -0.02189587345185
  N   -1.92500250562142      2.69987923619246     -0.24669896170198
  N   5.75840507013819      0.55474236933865      0.03203963487131
  N   5.70026050919661     -0.66137449121532     -0.06843520279221
  S   4.23168504957526     -1.36077957634821     -0.78944915249212
  H   4.51767445556906      5.12451177804421      0.59483716732412
  H   2.77922866888248      4.86433774744667      0.90416995545526
  H   0.29881511549987      1.14143352441848      1.24490839052471
  H   0.60589765857657      0.87854590178885     -0.45911478120512
