21
Coordinates from ORCA-job 15833optt
  Br  1.03719833556048     -0.11869622416354     -0.37645424979021
  C   2.93530204828016      0.10903744946387     -0.19793027455909
  C   3.56678258589910      1.37820838866907     -0.17550169025001
  N   4.96908659920653      1.33020007818461     -0.03372774904536
  N   5.75478690625335      2.45301383463939      0.02562166354275
  C   5.17901243074550      3.59566523772236     -0.06592669454058
  C   3.77769752615494      3.81657444849264     -0.22801229911311
  C   3.26579171988479      5.14613355246949     -0.31706968379945
  O   3.95538049651489      6.16864904357552     -0.29020030500765
  C   3.00485277237298      2.64705923240203     -0.27647853113144
  O   1.63956126163609      2.78932675268888     -0.49245130320335
  C   0.85335411023688      2.97289654683532      0.58051074007163
  O   1.20867941267172      3.04342511308818      1.71392912814332
  C   5.71552867934287      0.11984633876444      0.05597481754001
  O   6.92727611177030      0.12743661972160      0.15699382024574
  C   4.89332785363080     -1.05337215094567      0.01416783632442
  N   3.58564420801031     -1.01954135698495     -0.10490931244082
  H   5.83245638972528      4.45883362392729     -0.01412054958164
  H   2.17035936399843      5.23278729463870     -0.41889161320972
  H   -0.18523160912908      3.05562798632605      0.23977393576639
  H   5.39015279723359     -2.01111180951534      0.08670231403816
