27
Coordinates from ORCA-job 15843optt
  Br  1.13331032011240     -2.00442348809513      1.16614119515747
  C   2.87230958771852     -1.44581041172841      0.57788494228076
  C   3.06171364150653     -1.09858499771916     -0.77364054861456
  N   4.23630449145029     -0.36774671656586     -1.01608018249884
  N   5.39333679481276     -0.81322054931512     -0.40044216167691
  C   5.24969269111403     -1.37802651626800      0.73499264076779
  C   6.46223691417207     -2.13172046380329      1.23903032956993
  N   6.97043186248983     -3.05661064897322      0.21940697529869
  C   6.24820211572235     -4.30355548524056      0.07864474621125
  C   4.71807443305980     -4.27280902902581     -0.15127167461824
  O   4.39639580227746     -3.56388376909705     -1.33032548763653
  C   3.01120569793189     -3.34272455659580     -1.54347082917828
  O   2.71789008371823     -2.00109375229462     -1.80745977975588
  C   4.26344553576221     -5.71327849218343     -0.27509158067912
  O   4.40799595326502     -6.55118320467855      0.57283189809609
  C   3.94504835299692     -1.51527951380581      1.47206769528745
  O   3.94942997218756     -1.78194610887849      2.68967998624226
  H   4.41890902922220     -0.22726078888902     -1.99791236287959
  H   6.18878737375415     -2.68072756854954      2.14061980954560
  H   7.26345497346859     -1.43683871720672      1.49795826378464
  H   6.94929011472248     -2.55979341681695     -0.66564287082583
  H   6.39274238137830     -4.90830161935869      0.97682382256805
  H   6.70040049877375     -4.84875519762138     -0.75483630713560
  H   4.21948205449888     -3.83145573797049      0.72151198220210
  H   2.45149844295214     -3.69364173736269     -0.66978350855723
  H   2.69934665770179     -3.88437634498481     -2.43876068256480
  H   3.80306422322971     -5.96695116697136     -1.25387631039066
