24
Coordinates from ORCA-job 15842optt
  Br  0.81178503962993      0.26882117761496     -0.07020759914272
  C   2.67569246179454     -0.17425709466178     -0.11476122604944
  C   3.05198503442920     -1.51140855766427     -0.00869502352755
  N   2.08552296455325     -2.49349782972514      0.35101796874415
  N   1.77880292354401     -3.51097255171036     -0.55681413645025
  C   2.69522345018800     -4.32945566187755     -0.85999591073288
  C   4.09093259919794     -4.42951906643589     -0.34925736957885
  N   4.64198145997139     -5.60359877198921     -0.27231928914971
  C   4.83686721002632     -3.25653926789339     -0.04596527875626
  C   4.40118754811191     -1.94108738675744     -0.09020627428605
  S   5.72295938220779     -0.80061642555170     -0.26062904637241
  C   4.99134003672612      0.75387567433260     -0.19605698971028
  C   5.59986162722261      1.96127981902030     -0.22377578676487
  C   4.55061332664149      2.99362045344958     -0.24713434972676
  N   4.68933192666199      4.28541025749820     -0.27689724021278
  C   3.28518504079938      2.29516481106595     -0.22777955827723
  C   3.52742813754703      0.93659560191897     -0.19058587799236
  H   1.20879053347819     -2.03832560836348      0.55238041580402
  H   2.39186795338714     -5.12706354164386     -1.53627508769801
  H   3.98790643978638     -6.31660808307495     -0.59308074849763
  H   5.89658583859995     -3.43427626646129      0.10140429992126
  H   6.66183510739711      2.15847197944423     -0.24935791022656
  H   5.68330586496024      4.51485720842554     -0.28170642938924
  H   2.32400809313802      2.78212913103998     -0.22030155192760
