24
Coordinates from ORCA-job 15846optt
  Br  1.43051547065650      2.30388391848215     -0.25665325243890
  C   3.32031876187750      2.46968174811249     -0.04876580270999
  C   3.92924833519350      3.69628284885964     -0.15931019080621
  N   3.26541780167620      4.78354910101844     -0.72148091835357
  N   3.14354792055581      6.05429194348680     -0.22617599542963
  C   4.15908389227496      6.54071988855007      0.41664844593195
  C   5.43815169911393      5.98289872605962      0.69889689868470
  N   5.98592513963338      4.80800312126973      0.51707267482065
  N   5.31957357590411      3.73574837287169      0.09472259820510
  C   6.10435487553192      2.57044894013650     -0.07359061304877
  N   7.38201665842750      2.80609350420619     -0.32473867821121
  C   8.38928534813139      1.92281266646273     -0.41537610401012
  N   8.54759040382037      0.64990357159218     -0.19490808495996
  C   7.48759610212732     -0.15984894742472      0.18288832127008
  C   6.17197735059502      0.08170966876700      0.27717124798450
  C   5.42848907807272      1.32836441974251      0.07237473870432
  C   4.05157896258729      1.29416407524780      0.13139040860886
  H   2.37107106169961      4.50073127168621     -1.08772599933932
  H   4.01988173669242      7.56631603283179      0.74330637066695
  H   6.14266369676886      6.68480653828917      1.13438582635320
  H   9.30656203275471      2.41278810182547     -0.74676138020547
  H   7.79992815413451     -1.17622824336301      0.40935605721435
  H   5.55369445809736     -0.75746295684334      0.58028251576190
  H   3.53752748367298      0.35634168813281      0.28999091530658
