23
Coordinates from ORCA-job 15845optt
  Br  1.16027679927450     -0.30812179280543     -0.40552780545087
  C   3.03176982646032     -0.15752498639709     -0.24100653054726
  C   3.75148990852067     -1.28244252725783      0.05033761072562
  N   3.41390021321158     -2.55637842716067      0.30685157431324
  N   4.52349271953949     -3.40518292165966      0.37042792922913
  C   5.58944985760114     -2.53725626933898      0.51402554262262
  C   6.86180415673697     -3.03129568194391     -0.07593353361647
  N   6.84261980350475     -3.03752129879903     -1.55851269367715
  C   7.33571710288961     -2.02228571629473     -2.29879758395466
  O   8.14040023984050     -1.20127927633490     -1.90554742125411
  C   8.17310881829381     -2.44388859276702      0.42010090071455
  O   8.28694301041721     -1.75768699407045      1.39472657906480
  N   5.11630211600982     -1.22151216840193      0.13994677676430
  C   5.71946429358723     -0.01851285494346     -0.02327673375848
  N   5.09723754509331      1.08339057931918     -0.28433079038655
  C   3.69813875907880      1.10992662556646     -0.42815818722926
  O   3.11242436760704      2.14894081668401     -0.69704144461515
  H   2.51028285948896     -2.93378893678124      0.08459737591120
  H   6.91642151288635     -4.08413883652197      0.22501088134686
  H   6.04044257679138     -3.52365855584272     -1.93561973035738
  H   6.96163267280000     -2.02301374427948     -3.33589990462651
  H   9.05696871731231     -2.78198076443604     -0.14989515109458
  H   6.79971212305409     -0.02578767553307      0.07452233987614
