23
Coordinates from ORCA-job 15841optt
  Br  0.90171560390111     -0.40970890332435     -0.15071506631087
  C   2.71654047287941      0.13909133499996     -0.10408419574988
  C   3.11671617512760      1.45060116953023     -0.18239926363269
  N   2.15028171798927      2.44407986721601     -0.43164796226456
  N   2.03707939241910      3.58320601592706      0.36332311434900
  C   3.02235468159598      4.37372934932340      0.45364031914042
  C   4.35542930741744      4.31680232508963     -0.19618626867074
  N   4.95059395826750      5.44141230679124     -0.51176174464486
  C   5.00053223538174      3.07736518400828     -0.37964916082651
  C   4.51174625156114      1.78067062189019     -0.15261691478437
  C   5.51625456366641      0.72739658230010      0.03751230144518
  N   6.77459775064577      0.84558148303967      0.22939604992656
  N   4.99635300211317     -0.58977495366981     -0.00156708749897
  N   5.75106285770811     -1.70902070032474      0.04833678013334
  N   4.94119990998415     -2.71252865491250      0.02006899654236
  C   3.66009426359670     -2.28184936395496     -0.03857027762809
  C   3.67386411866662     -0.90145687921583     -0.05336128813794
  H   1.23145272601367      2.02975201962330     -0.45821445436102
  H   2.83029815555800      5.26223918064828      1.05305756938745
  H   4.36268628136485      6.22949721130614     -0.24193127528392
  H   6.03385864918765      3.17437327936066     -0.69297512062538
  H   7.01840303800017      1.82803833907070      0.29293660202589
  H   2.82088488695417     -2.95349681472277     -0.06959165253042
