24
Coordinates from ORCA-job 15855optt
  Br  1.09055591395615      0.02646020110856     -0.31363800880038
  C   2.99236761619141     -0.02967034635535     -0.15176212077281
  C   3.66137094196341     -1.24334875832715     -0.12730217864658
  N   2.96676527880422     -2.43081614792944     -0.20396737431152
  N   3.49330508361102     -3.67618021617617     -0.23436995665716
  C   4.81129372007099     -3.73820010745521     -0.11731910721312
  C   5.33027491217122     -5.14666596138115     -0.15084108959496
  O   5.71233200706652     -5.59411147167856      1.15564132472678
  C   6.92115018028292     -6.15196753162402      1.30591496797217
  N   7.34073194445934     -6.66944244485136      2.37415197488110
  C   5.62970421587914     -2.61513209599170     -0.00105090565653
  Br  7.49134600259004     -2.92457660248431      0.19093260862888
  C   5.07746536071943     -1.29396334592056     -0.01971803812833
  C   5.84882880636113     -0.05163093636983      0.04107557849835
  O   7.09098109823993     -0.01633660485521      0.09757371637144
  C   5.06635595192887      1.16430543656257      0.02715860817033
  C   3.70578964164965      1.17081438248077     -0.07013501607194
  H   1.96713326255993     -2.40068163312896     -0.30373525721106
  H   6.18311997855391     -5.23205421128311     -0.82652581499459
  H   4.52023517680841     -5.78937338536725     -0.49319678301182
  H   7.54811852450905     -6.13397689298105      0.41457718968847
  H   6.63005556562095     -6.58872931845484      3.10219616155997
  H   5.62399957466671      2.08983149238217      0.08753526505706
  H   3.15771924133558      2.10544650008122     -0.08719574448374
