23
Coordinates from ORCA-job 15851optt
  Br  0.92057906743484     -0.52667991964961      0.15442792387914
  C   2.78686509240900     -0.20661297258888      0.08902957898387
  C   3.66458206931785     -1.25551591201691      0.10310397253818
  N   3.38089323666200     -2.59366389458328      0.15876766729761
  N   4.46208876947213     -3.37454181222352      0.14462633524019
  C   5.51084075172187     -2.52945959443622      0.08699421251294
  C   6.79540254082313     -3.22498852409562      0.14286983607193
  O   7.90634584012989     -2.77401275834110      0.30015089851997
  C   5.09060598049794     -1.16372944848520      0.04090243163677
  C   5.76656048930814      0.06746844109718     -0.08044123180146
  N   7.18207065660482      0.10122239189080     -0.20815248482285
  C   7.87493106529148      0.08544531000731      1.05789844963086
  C   9.36151549619253      0.17094374025706      0.90913504497918
  O   9.94573215424826      0.48100587001783     -0.09278015529490
  C   5.12594106113685      1.32520063708622     -0.10122831793580
  O   5.67835399847702      2.42124758027291     -0.19658031955148
  S   3.30431085520412      1.44028592538879     -0.02622824446264
  H   2.46211006959061     -2.99844877082783      0.19547817528871
  H   6.64695425267433     -4.31877109188246      0.05508851341888
  H   7.44452179068053      0.94085047292842     -0.71356608432427
  H   7.65119406439916     -0.83934257576283      1.59313607406090
  H   7.58892373651724      0.92030637683236      1.72613593012982
  H   9.92567696120580     -0.04420947088535      1.84123179400443
