23
Coordinates from ORCA-job 15850optt
  Br  1.31121724405625      0.05299682596000      0.42713563835306
  C   3.17975143153794     -0.01856245828344      0.21379984081845
  C   3.82254429664401     -1.23106964943132      0.06948905404020
  N   3.37929475093313     -2.49310752200511      0.03089672271493
  N   4.36569042991012     -3.44707328551625     -0.16360583860127
  C   5.51856151306640     -2.74125793702016     -0.25165071339303
  C   6.77994948713443     -3.31531613447501     -0.47311405198573
  O   7.87109227576810     -2.66058868016126     -0.58056835092434
  C   5.22852456389180     -1.32222738640354     -0.10160460273221
  C   5.94709830713238     -0.16638779412202     -0.09652339558019
  N   7.29069951805338     -0.10865223866122     -0.20397838485404
  C   7.97956308790778      1.08981377213264     -0.57475291105790
  C   8.64065398669894      1.77830190286624      0.55631423884964
  N   9.17851609245783      2.32477403676368      1.40827639846212
  O   5.32939709551350      1.02254191443159      0.03680207530317
  C   3.93136933756038      1.18498923782633      0.19089532099119
  N   3.48638044621738      2.37565908876702      0.29250204848370
  H   2.42051004981685     -2.77974941498873      0.11489152651075
  H   6.80006153963421     -4.40805523027685     -0.56127977783983
  H   7.70771759827096     -1.07161010201413     -0.36332254345949
  H   7.29856682911225      1.80819391510855     -1.03437510349018
  H   8.75894281272614      0.85351709414719     -1.30212984192868
  H   4.25389730595555      3.03987004535582      0.26390265131971
