21
Coordinates from ORCA-job 15866optt
  Br  1.38085319538233     -1.04360419241285     -0.75515755913826
  C   3.23446138010406     -0.92278246411870     -0.54193667552175
  C   4.03359538200789     -1.88117189113665     -0.04674818526060
  N   5.41346669864017     -1.48662794660734      0.02726617429387
  N   5.72136608245804     -0.14876753180307      0.31884398328459
  C   4.89772755298538      0.69542306069982     -0.14936898770816
  N   3.77512999258793      0.34970807222055     -0.86662981165731
  C   6.47977240136230     -2.33178346015629      0.08673842671367
  C   7.73167028103463     -1.71963967122175      0.68441963765483
  O   8.81286300967431     -1.78589314611788      0.17508171072555
  N   6.54002152097616     -3.55803359294220     -0.24363653154044
  C   5.43812148862535     -4.30885468265405     -0.67326702341543
  N   5.46130099245584     -5.00621342691230     -1.73432780610231
  C   4.25059221043849     -4.38945673185073      0.27240509747413
  O   3.88861759144488     -5.48328051844111      0.69018011998526
  C   3.54786977936790     -3.14315934729082      0.57950553712196
  O   2.47832745672348     -3.11767280063766      1.22091621207090
  H   5.09261160416441      1.74773746740712      0.01460658912556
  H   3.09789286948845      1.07671954458173     -1.03227459436845
  H   7.58450543639468     -1.24866348343586      1.67077777549918
  H   6.36423307368321     -4.87198325716993     -2.19339408923679
