23
Coordinates from ORCA-job 15864optt
  Br  1.11557829425596      0.09360663650113      1.52551676701093
  C   2.86931468266416     -0.19415172346590     -0.16442011313457
  C   3.58452071538656     -1.32222892578579     -0.24267183275953
  N   5.02568970696164     -1.24057497196795     -0.33497932034715
  N   5.66432100210091     -0.17859592628125      0.28095792372933
  C   4.95995857713506      0.87702984368981      0.33890971372090
  N   3.65508334181309      0.97423590945775     -0.13468132761988
  C   2.98227236504462      2.25570515148525     -0.12497408639818
  C   3.22677128537194      3.05484318977773      1.08582125724721
  C   3.45134224765197      3.70040319195825      2.06665827854976
  C   3.33664242466405      3.05890411689238     -1.32057636807665
  N   3.60523789713243      3.68057070094425     -2.24491754234314
  C   5.57908082493096     -2.50502954191466     -0.19315783137402
  N   6.78470345913132     -2.86610088528783     -0.01673916953497
  N   4.50574698334535     -3.37250282827742     -0.28287974938766
  C   3.25319570802474     -2.74195494144638     -0.25866216119102
  N   2.10369110551275     -3.28636183553465     -0.29283927300468
  H   5.38873689959711      1.75506908918096      0.80694225480851
  H   1.91179772045903      2.02870392223032     -0.16647370850109
  H   3.62972020272458      4.25753769412863      2.95417622354827
  H   7.37246488253395     -2.03864432730512      0.03983553047899
  H   4.64399506458170     -4.36542901426439     -0.21523970703491
  H   2.18613460897599     -4.30103452471510     -0.31860575838644
