22
Coordinates from ORCA-job 15865optt
  Br  0.77453374337136     -1.39903676561523     -0.15501528665597
  C   2.99629602990737     -0.14616771085567      0.17877250740597
  C   3.63528900306150      1.02143801146966      0.07194131391331
  N   5.07365688985092      1.04284109736124      0.21298373706198
  N   5.81835855164933     -0.08006592346824     -0.07132615938570
  C   5.15540485848451     -1.16766580050344      0.04205920708066
  N   3.81183566616606     -1.24902900293776      0.40043494227586
  C   5.83052175409875     -2.40722683557867     -0.21893822185118
  C   6.34755914544001     -3.47109655404888     -0.40508733924354
  C   5.55660960761698      2.29629441915801     -0.04162203607061
  O   6.68447560986523      2.67647213494734     -0.15401021814393
  O   4.46808198070562      3.12597986122001     -0.14127883823394
  C   3.27489949406728      2.41264445350945     -0.11562235387987
  N   2.19160449971319      3.04187957979975     -0.21014592957609
  C   0.99118509801104      2.22454472614779     -0.16976363757170
  C   -0.21689436233018      3.05216094203499     -0.19671102376273
  C   -1.21901086241593      3.70901192291679     -0.21628184969665
  H   3.35668238446816     -2.14829410299837      0.32607935788652
  H   6.81745509486772     -4.40909908553822     -0.57669998424806
  H   0.96766833421881      1.58789492550137      0.72327397055953
  H   0.95973089748816      1.52113401078668     -1.00980209940682
  H   -2.10494341830603      4.29538569669137     -0.23224005845706
