22
Coordinates from ORCA-job 15868optt
  Br  1.92796972463734     -2.29373302219742      0.78454480366126
  C   3.46317321638752     -1.62145949286644     -0.08471567013669
  C   3.78163099231042     -1.95680811250482     -1.33507605828504
  N   5.03498373985108     -1.52278520928429     -1.77571544161613
  N   6.08226780412522     -1.85078797527179     -0.87415705833342
  C   5.73455680192601     -1.73696825510220      0.34634218385393
  N   4.49690684136370     -1.02660503213463      0.65763681438148
  C   6.38880256768722     -2.53224130098436      1.38988070640065
  N   6.73208444735649     -2.05979920719329      2.57674895721354
  C   6.56598848582910     -3.94731959474511      1.04358454608852
  O   7.20270849847949     -4.74516140786622      1.73517872842551
  C   5.90972635056768     -4.44280319311626     -0.22641883675699
  C   4.60361509478295     -4.41373133426300     -0.42456156189722
  O   4.04726091220674     -4.78402931450378     -1.66612868667992
  C   3.20884820951679     -4.06570840967168     -2.40892425358014
  O   2.62068260466429     -4.55436492943982     -3.32193761469048
  O   3.00724543581518     -2.72890885046972     -2.16086864902499
  H   5.27470155809789     -1.85318988713399     -2.69910232859324
  H   4.31956935288253     -1.02750686512303      1.65431330759700
  H   6.59903486295314     -1.04799948204799      2.58588540092416
  H   6.55976204122070     -4.80896811974277     -1.01495469435726
  H   3.87048045733839     -4.16512100433731      0.32744540540546
