27
Coordinates from ORCA-job 15871opt
  Br  0.88460625126764     -0.41157272041930     -0.07807463101400
  C   2.80035589121858     -0.11384055664856     -0.29364734300229
  C   3.36245756157334      1.08015770631276      0.14922819601054
  N   4.67105326988194      1.06177498123241      0.66074510939706
  N   5.46496323213268     -0.04835737767031      0.73400467785646
  C   4.88282276596472     -1.13568667380589      0.40781649004871
  N   3.56248797844976     -1.27567772008254      0.02314625393289
  C   5.10108101520558      2.36862028223587      0.92277049262459
  N   6.26091903155047      2.72744672891871      1.35589240136323
  N   4.03169733508143      3.19531353858810      0.64761728684598
  C   3.02556855178941      2.43661438296047      0.18908409886576
  C   1.70356681049577      3.05570034386740     -0.13098956300307
  O   0.74664225731926      2.98568004695723      0.92040486364568
  C   1.18497335494352      3.50168417274137      2.15992888156255
  C   1.89579989944637      2.45239962961063      3.00876277471881
  C   1.81187437604885      2.68550841743745      4.48255841986266
  O   1.23802638604874      3.59542074187236      5.02436861885034
  H   5.46437950152929     -2.04893218250308      0.43912175549857
  H   3.36845043030021     -2.08563499000110     -0.54614887083280
  H   6.83677985186092      1.89434125606473      1.45618744503597
  H   1.22995360121030      2.55618964474920     -0.97580059338112
  H   1.88971439597310      4.10577429747103     -0.38342832046243
  H   0.29140394397418      3.83758220863567      2.68719342870141
  H   1.84255316226557      4.36392320581924      2.00917927430624
  H   2.95858647575240      2.37029410457909      2.75768546342316
  H   1.47067610912480      1.46191276817516      2.80233290489481
  H   2.34060655959084      1.92936376290169      5.09806048425012
