23
Coordinates from ORCA-job 15870optt
  Br  1.75986232238051     -0.89769994933543      1.20380531570208
  C   3.43628039051546     -0.68110691652182      0.36431334703067
  C   3.61212236927692     -0.70548667954575     -0.95805193027258
  N   4.96087633008666     -0.69443429666881     -1.37414266907389
  N   5.81667886399248     -1.55856660142835     -0.64536997313522
  C   5.56315197897537     -1.61541375822387      0.59672314192491
  N   4.57624623798538     -0.72273333698521      1.16706075999122
  C   6.17981740539786     -2.54923649568442      1.54379923397532
  N   6.58109640604132     -2.12551563787136      2.74172022012532
  C   6.31111161447146     -3.95229295892299      1.23410250776444
  O   6.93331062561931     -4.76866908276175      1.88424168214451
  S   5.50193773935061     -4.72205047576621     -0.26827042239216
  C   4.07683268328730     -3.80790132302926     -0.70060092271737
  C   3.79698111111424     -3.50343210040969     -1.97087846935426
  S   2.34702026430993     -2.65235159312017     -2.51552655132837
  C   2.53134982958666     -0.97156140861669     -1.92928515906463
  N   1.67371513749665     -0.13793968804996     -2.34349026345864
  H   5.06425107509600     -0.91763482103821     -2.35422170991048
  H   4.39543357036749     -0.95100100485269      2.13639991361125
  H   6.52374819037451     -1.10706197655502      2.77225898614361
  H   3.40613419570473     -3.51608284016516      0.10364446963181
  H   4.49647181907389     -3.76550966666602     -2.75524675462667
  H   1.84456983949515      0.76968261221889     -1.91098475271087
