23
Coordinates from ORCA-job 15878optt
  Br  1.08806853817075     -1.02634492710295      0.17916995618272
  C   2.96497475160223     -1.08733613320198      0.27378370176218
  C   3.68016444440465     -2.20661677704285      0.29828549774086
  N   5.11353562712603     -2.02685184226760      0.47416567055906
  N   5.53421403268693     -0.87765596744748      1.20331786504435
  C   4.77138970547121      0.12748110175618      1.13789630139111
  N   3.57540376760885      0.17300690970227      0.44675432471569
  C   5.96679266038422     -2.23171940041655     -0.65145711890212
  O   6.55351583979639     -1.33237480314041     -1.20823989540924
  N   6.11209490212320     -3.54744704606270     -1.02149953641316
  C   5.62318252372549     -4.60105230652483     -0.24799178632647
  C   4.92773643027884     -5.66070938554865     -0.66580854117633
  S   3.78843576963798     -6.27372707955287      0.52944107775410
  C   3.33796769583055     -4.50961124992431      1.15302925184102
  O   3.38096852967013     -4.30440965507943      2.35440035068971
  C   3.12276159650379     -3.56931983987305      0.08457960663926
  N   2.65154819838220     -3.80480403984027     -1.12929238344781
  H   5.06032693552331      1.02519602881779      1.67334758751583
  H   2.94974972853409      0.92664402676599      0.68098014053902
  H   6.35682924288759     -3.68743318134509     -1.98885502689655
  H   5.70138154863552     -4.39818683397774      0.81128959166744
  H   4.76133333762168     -5.86611942531815     -1.71572242595806
  H   2.31862419339428     -4.76860817337527     -1.16157420951260
