25
Coordinates from ORCA-job 15872optt
  Br  1.93447114611921     -2.52377927333116      1.17081532520932
  C   3.33268783593764     -1.33602806968836      0.47140155193006
  C   3.65577051752510     -1.29599410644937     -0.90069044296376
  N   4.78188066542715     -0.41236014404956     -1.10490606562081
  N   5.96220498334815     -1.05632412207487     -0.54133865837697
  C   5.72371539729824     -1.54341941812634      0.61267395431927
  N   4.52889481554038     -1.37206724498873      1.27753089065859
  C   6.71658104934795     -2.49872383336900      1.20204506108376
  N   7.42404527473056     -2.30043704020985      2.24802853520264
  N   6.80801135508229     -3.67587316465440      0.50538600035463
  C   5.91475415947837     -4.11772913540121     -0.50031137622791
  C   4.60448349906661     -4.11712370715506     -0.29495475415677
  O   3.69008808876573     -4.46760089339386     -1.24700915300097
  C   2.78971971797098     -3.52622588336699     -1.76730371897116
  N   1.66334434612253     -3.91159213420862     -2.15819282843322
  C   3.35955967792126     -2.15008581056247     -1.99481712139228
  N   3.69817537360503     -1.96058008009232     -3.24103814661228
  H   4.64468513127290      0.45832952912497     -0.59403761791998
  H   4.45297062428769     -1.73051015746051      2.21590152975696
  H   7.28226484603050     -1.35233076763864      2.58349951529476
  H   7.54507766702507     -4.28863125947159      0.82022379995418
  H   6.33329694120163     -4.36935503387444     -1.46731422691970
  H   4.19072916152223     -3.87323435903708      0.67574566539479
  H   1.55404959810795     -4.90597536895683     -1.95748616610466
  H   4.16453812726478     -1.05334852156367     -3.29485155245848
