25
Coordinates from ORCA-job 15877optt
  Br  2.41838173623253      1.04038614106507     -2.09436414099634
  C   3.63237289075062      0.37006225064434     -0.83297072973762
  C   3.72823100869794     -0.89950991487853     -0.40071311435669
  N   4.86852323327999     -1.17131619471799      0.39457538885754
  N   5.33403930917262     -0.17522866276450      1.25453232876456
  C   5.16879636438068      1.00259387258913      0.82845672445920
  N   4.61193460052935      1.32008276488452     -0.41427561829654
  C   5.50309835069438     -2.42686314077973      0.44849316674617
  O   6.52249584080842     -2.55327915439838      1.09985993612175
  N   4.91357759760019     -3.43934610331854     -0.26613819330001
  C   3.70038650817617     -3.25798576477567     -0.74906189926174
  C   2.92076854525633     -2.07492552559368     -0.72695152570169
  N   1.62220496268863     -2.14821326904183     -1.01265173697292
  C   0.71329203555154     -1.16771447473649     -0.49103594832465
  C   -0.32761813344542     -1.88538772263895      0.38977557439585
  C   -1.41880021697621     -0.96378282363169      0.82582429455329
  O   -1.78922769465768     -0.79036619585143      1.95861275182888
  H   5.48789613223384      1.82988520578324      1.45147419258749
  H   4.30044372955837      2.27724758229927     -0.49366667327247
  H   3.21066778865008     -4.12702531836437     -1.18459735216104
  H   0.17537490913789     -0.66257207825826     -1.30436499933743
  H   1.19359245563537     -0.38234143127433      0.10780442949614
  H   0.14409611674688     -2.34348840727470      1.25820160983254
  H   -0.77274159908149     -2.67670035728355     -0.22349465463492
  H   -1.90678647162107     -0.39921127768290      0.00167618871067
