28
Coordinates from ORCA-job 15874optt
  Br  0.84656715664988     -1.17797933085371      0.00527821868376
  C   3.04759263839947      0.14634592536803     -0.36619549405201
  C   3.63629398060321      1.32673988001613     -0.17197787229397
  N   5.09842673374846      1.32413042579479     -0.08428301547287
  N   5.72462335423476      0.21520871026274      0.48707899587230
  C   5.09539016013831     -0.87089875228174      0.26231904583850
  N   3.89264657197534     -0.96190400921812     -0.40271486728216
  C   5.46915585593466      2.57769889744770      0.30322766305648
  O   6.76824458969348      2.76096406666864      0.58840806585704
  C   7.12722597902849      4.06613910143450      0.99065466507759
  C   8.57376301849959      3.99478347742564      1.42130667251539
  N   9.39870295709026      3.50516992975710      0.33754916940815
  C   10.72321906432556      3.80959415169031      0.23045619968511
  N   11.61892546872950      3.26738615993135     -0.49044501721409
  C   4.42965881128178      3.45134457099965      0.33045443537598
  C   3.20074876101327      2.71666087022926      0.01298348932955
  N   2.00287854393148      3.15304452499550     -0.13736772694038
  H   5.52460197549441     -1.78971301011369      0.64421946676549
  H   3.40335440583444     -1.84644840104329     -0.37088800457233
  H   6.49472282502155      4.38777463453418      1.82343757866895
  H   6.99985115145891      4.76020708910375      0.15364820377310
  H   8.64367610599384      3.34973662652770      2.30400481268151
  H   8.91749984914816      4.99230233572981      1.70022887832990
  H   9.06590653760113      2.65919087039190     -0.10564570117783
  H   11.00846348151422      4.66607901300305      0.84491695104298
  H   11.24435703578448      2.47573644909539     -1.01462811496351
  H   4.48824939059595      4.51832934303851      0.47151821681687
  H   1.98825359627507      4.15937645006480      0.02245508519048
