20
Coordinates from ORCA-job 15873optt
  Br  1.04111292838347      0.22215084586954     -0.28921613442822
  C   2.85922450686284      0.27216750020967      0.13075442776682
  C   3.65361421434553      1.34087551049590      0.19873614548056
  N   5.03370962948547      1.15662173520872      0.36721939423388
  N   5.59155056597650      0.00900010322423     -0.18214289110762
  C   4.82074377560851     -0.99509157161523     -0.18908860098783
  N   3.51482881480820     -0.99387083887793      0.33018390859732
  C   5.73164767462253      2.42650642027336      0.18067329657488
  O   6.94960605748856      2.51271268691832      0.17262694472717
  C   4.69182773839047      3.38423514595842      0.06559753173402
  C   4.59059097227219      4.76619368439228     -0.03680321186999
  Br  6.14892526831501      5.81516880853414     -0.16556484691150
  C   3.31217463728033      5.38880391156082     -0.06172666833185
  N   3.00343633026884      6.63417978244770     -0.15560166718241
  N   2.15462003622773      4.51582690515183      0.04668448658702
  N   2.24881673842782      3.27571346688425      0.10993469596553
  N   3.45770646190142      2.70275617973173      0.08818643498459
  H   5.19389514959450     -1.92754503016477     -0.59421200026216
  H   2.95579556789844     -1.77034793002098      0.00890101395966
  H   3.85817293184152      7.18294268381793     -0.22414225952987
