25
Coordinates from ORCA-job 15886optt
  Br  1.55579765034769      0.06668518240020      1.10994870934541
  C   3.34823653650020      0.07916949719824      0.52436055039524
  C   3.95485824837549     -1.11925189550746      0.33201844499548
  N   3.51036354830440     -2.39990861979353      0.47081660941971
  N   4.42350311140315     -3.31829841480170      0.00162865734448
  C   5.44535911440626     -2.60548651078905     -0.33598229358762
  N   5.24958421419540     -1.26357936592395     -0.12042458152503
  C   6.03301759080063     -0.11167975492435     -0.41478578494597
  C   5.38689564681628      1.14330463935231     -0.26986202261721
  C   4.03730963860333      1.32216583061757      0.18958180043716
  N   3.41182858189630      2.45661466888551      0.31762506279440
  S   7.71468275213901     -0.23981177263885     -0.17366533510744
  O   8.15201937357410     -1.58847057864511     -0.48117085468632
  O   8.36514709178142      0.88554129229839     -0.81484804655680
  C   8.10195282457837     -0.03561838686722      1.56782592090551
  C   9.44999731427592      0.46069252223040      1.90570071729265
  N   8.26991188059656      1.30279872601015      2.08850056930673
  H   2.54781659148013     -2.65562559975923      0.59634843752015
  H   6.37317725160399     -2.98936874283959     -0.72008125501080
  H   5.96479634235032      2.02622350208613     -0.50792437930037
  H   4.03550208460512      3.21013267319380      0.03498793125271
  H   7.58022528733311     -0.74787843163703      2.19648131583957
  H   10.10615610572895      0.67793093096932      1.07223140916742
  H   9.92286806749825      0.12642799469136      2.82050129692516
  H   8.20499315080547      1.96129061419368      1.31518712039576
