25
Coordinates from ORCA-job 15888opt
  Br  0.99754387153490     -0.20219459295563      0.03915142842845
  C   2.85393489579566      0.06372732080031     -0.05883903869122
  C   3.68178770622230     -0.90379156681467      0.40170940019220
  N   3.48875740430906     -2.13238349623495      0.93351980173673
  N   4.67591528191145     -2.74893549927774      1.25252582909695
  C   5.59762966531620     -1.92558106535269      0.90621543137923
  N   5.05132162516164     -0.76275599363916      0.36144613158778
  C   5.59810832175209      0.39474796355211     -0.18329682057580
  C   7.08881900436791      0.52374362560971     -0.21230123273978
  C   7.68272920874194      0.94405582701798      1.14679096706430
  C   7.76581526032915     -0.22747848634356      2.10362604023714
  O   8.39160585045019     -1.26851053668691      1.73941819237607
  C   7.06259544192754     -0.13256754303614      3.34293161147320
  O   6.39251140633163      0.85012630074141      3.73042525884457
  N   4.84420683533153      1.31945047251771     -0.64391121382780
  C   3.42967634951358      1.26146170093367     -0.62387629754297
  N   2.71490016158171      2.21184093035598     -1.09585906073805
  H   2.60784142497306     -2.53294777166024      1.19762952545181
  H   6.66443097863317     -2.07344152492054      1.03483161827264
  H   7.30394121929633      1.27236440122368     -0.97227127700219
  H   7.55019799084252     -0.42393112424275     -0.50400383465193
  H   7.10142793381830      1.75315732723276      1.58897050772779
  H   8.69765715278487      1.30376354912920      0.95377841847444
  H   7.15065139219037     -1.03841858149654      3.97147925440073
  H   3.34099361688234      2.93949836354702     -1.43309064097435
