23
Coordinates from ORCA-job 15881optt
  Br  1.93660354751107     -2.47436088492776      0.42596521777543
  C   3.47550698780413     -1.46101060819063      0.06267106982036
  C   4.01611311588021     -1.24988470614175     -1.13321807522673
  N   5.11843694356008     -0.31581835263924     -1.13752949365369
  N   6.12569389425275     -0.76394523354124     -0.18812740089564
  C   5.60482924904082     -1.16388779658997      0.90255202755283
  N   4.21871923827033     -1.01221393416568      1.15497906208213
  N   6.25661180293952     -2.01921380537774      1.79879650633162
  C   5.70059032122853     -3.35718681425874      1.52019834089692
  C   5.35602361848180     -3.68383014102333      0.24954755789088
  C   4.40729051639258     -4.69320808890049     -0.13296243790067
  O   3.99759331636396     -5.58278780169616      0.64892080557552
  C   3.79942452184574     -4.59787569552580     -1.48287668278583
  O   3.15828018724443     -5.50277055587147     -1.98270485793197
  N   3.90848298584715     -3.42302217562201     -2.36594074086913
  C   3.78308979583518     -2.04675799839646     -2.37728607943015
  O   3.56727947186036     -1.47337295323932     -3.42800261952577
  H   4.78517203688543      0.59921928000027     -0.84073888198613
  H   3.93830940719128     -1.41530584082185      2.03896748906372
  H   7.25721052339699     -1.96168522854988      1.64200151767337
  H   5.35860880159245     -3.91896859432743      2.37831794854597
  H   5.73102231241534     -3.06488095626187     -0.55399581096670
  H   3.65110740415979     -3.75823111393139     -3.28853446203632
