26
Coordinates from ORCA-job 15892optt
  Br  0.91915094495630     -0.22385960066855      0.51589608326163
  C   2.79479385067645      0.00489053331484      0.30570918442792
  C   3.56746902190785     -1.11101239871866      0.35547311298675
  N   3.32507998918216     -2.46662667090811      0.60141305523838
  N   4.50287606283489     -3.19367343985888      0.30706757752748
  C   5.40563663795378     -2.28948520627096      0.11550215160976
  N   4.93981130781269     -1.01648633312965      0.16991496772536
  C   5.57351313013497      0.26643520897639     -0.14436757639640
  N   6.85503897553142      0.30968637938450     -0.33725515568128
  N   4.75708869665326      1.30934055689651     -0.20420281321350
  C   3.41625473733779      1.24421955891543      0.02977001487193
  C   2.62696450806832      2.50888328292974     -0.08056992527009
  C   3.42606509317418      3.78103882160346      0.20877863703501
  N   2.67035808776534      4.79185559976171     -0.53799297343949
  C   2.02769403079732      4.17937463457448     -1.61970771315230
  N   1.42536858236760      4.73530074997537     -2.60396491663631
  N   2.14092857695105      2.83080841961356     -1.43635524786417
  H   2.48598706522131     -2.87932619375994      0.21777145943538
  H   6.43869175107794     -2.52283089541911     -0.08319212455768
  H   7.27405879689578     -0.60411268274637     -0.21075654069779
  H   1.76794848301044      2.45842119353525      0.59798728681090
  H   4.44243932969662      3.64845806957216     -0.16447159940673
  H   3.44761290569483      4.00570634175218      1.27422220241731
  H   3.15698177158467      5.64165568817048     -0.77810089396184
  H   1.48318606527813      5.74588855641679     -2.51923394762627
  H   1.48100159743483      2.22744982608733     -1.89933430544397
