25
Coordinates from ORCA-job 15891optt
  Br  1.14783966903407     -0.07595538191919      0.26829953167878
  C   3.04995552515944      0.07458109288599      0.08963838034031
  C   3.76544575818403     -1.07728516132970      0.15182089858587
  N   3.46692593529343     -2.43744132837154      0.26318682408223
  N   4.66371164258049     -3.15364379691531      0.43159472173958
  C   5.60238847693813     -2.29297572456059      0.22918380916528
  N   5.15078712195839     -1.02629106777645      0.02321375533325
  C   5.85566358856025      0.20602141566166     -0.18258734038792
  N   7.12916268261616      0.22233002199203     -0.38913257588217
  C   4.96266419094796      1.31939922855478     -0.14123561572320
  N   3.59738163602178      1.26461697887766     -0.05099889331036
  S   5.61662827067802      2.93542300137300     -0.26838151562814
  O   4.53231962341383      3.86932483205361     -0.09753951157132
  O   6.79674490398751      3.09295111871092      0.55133009016111
  C   6.16666184687029      3.11476853755417     -1.94390354677198
  C   7.18812892792650      4.18316954955869     -2.20038451122387
  C   7.56788565371077      2.73888685386320     -2.29117158667788
  H   2.71441328452308     -2.72615581593262      0.87084303352555
  H   6.64905490329418     -2.54785066075202      0.23651604938746
  H   7.52482638062770     -0.71071644781097     -0.36407577609642
  H   5.36569122121025      2.96393286789550     -2.65442437989785
  H   7.53633837589066      4.73049653833495     -1.33525201372925
  H   7.07591304173547      4.75830099911573     -3.10915179796489
  H   8.14646151694944      2.31683860784220     -1.48234275018506
  H   7.72800582188804      2.30127374109428     -3.26704527894907
