21
Coordinates from ORCA-job 15908optt
  Br  1.33757072702655     -0.56756921120431     -1.13410976496483
  C   2.98248680732949     -0.12018444111232     -0.31888577457551
  C   3.45748578764351      1.18104234946835     -0.17596098953524
  N   4.81174687497295      1.30134450517590      0.06597092144502
  N   5.47273785287207      2.49971194077939     -0.04044169367844
  C   4.73330429918495      3.51271475692067     -0.41424338837740
  N   3.41475318070255      3.57053484067235     -0.54353339745205
  C   2.74139012019130      2.41301019462507     -0.28924933844697
  C   1.33011176314861      2.54431218164970      0.03845477736858
  O   0.64004688925289      1.72211570153020      0.61341366111278
  N   0.80606420375763      3.80615154289050     -0.30548207841017
  C   -0.46638440633156      4.18909241708394     -0.02190743497571
  O   -0.92082393698248      5.28049244501951     -0.28964318134867
  C   5.67258521616918      0.18940091606389      0.38846659019937
  O   6.83052461959347      0.39405849739680      0.65718451538677
  N   5.09547106578882     -1.05083679132913      0.35223557975633
  C   3.84931923490868     -1.17080168860133     -0.02136850131592
  H   5.28983157109698      4.42508637474151     -0.60026460518339
  H   1.44776117346984      4.47087523173798     -0.71912585962838
  H   -1.04007507933468      3.39815081087095      0.47648152679776
  H   3.46409203553920     -2.18470257437965     -0.10299156417393
