25
Coordinates from ORCA-job 15913optt
  Br  1.26576847516747     -2.85820327666215      0.23906930318860
  C   2.97907396143371     -2.07981015490673      0.12821615315253
  C   3.81771119514409     -2.14859506075686      1.19421086301529
  N   5.03059990245363     -1.55331014442602      1.08083684184597
  N   5.63506268883972     -1.32070696592482     -0.10403787550157
  C   4.93728026559420     -1.50132976586036     -1.17935689204565
  N   5.64406094144944     -1.63500015916506     -2.36672299357906
  C   6.45943335427542     -2.65834270194430     -2.42385352765840
  C   6.49596241977889     -3.78570707586347     -1.55148708397865
  C   5.36079284254755     -4.20601098822703     -0.83612497194936
  C   5.27123451049158     -4.53527116238753      0.51127534294862
  N   4.11922884072981     -4.83351742078920      1.10080183133553
  C   3.63614301355550     -4.33515040452890      2.25216255454548
  N   3.04084444621931     -4.93950740595504      3.21650033306006
  N   3.65066291292717     -2.88667122765812      2.38068758396692
  C   3.45140949041002     -1.60973210438940     -1.16578189846364
  N   2.77714496577391     -1.42662557878110     -2.23567499882970
  H   5.66788690091720     -1.69313459091398      1.84842649889158
  H   7.20864803303724     -2.60644802544539     -3.21542573797726
  H   7.47054557476916     -4.22649461241795     -1.36245579234535
  H   4.39823719091167     -4.06174916829479     -1.32181220084076
  H   6.18655170692575     -4.45685394664408      1.11257473137377
  H   3.10885241435276     -5.93888479102023      3.04862005347346
  H   2.86851684750520     -2.61010947848033      2.96045119393464
  H   1.78734710478950     -1.58283378855707     -2.04709931156305
