22
Coordinates from ORCA-job 15914optt
  Br  1.33757233728338     -1.29556783640976     -0.50690190360426
  C   3.18245125919962     -1.00437120026042     -0.12057968008796
  C   3.77846917930614     -1.24249525105549      1.15833205111139
  N   4.87959059631824     -0.40425634516582      1.44186867450197
  N   5.97559904662367     -0.64186110102140      0.51178325423171
  C   5.52695289495279     -1.05789982556194     -0.61612899577661
  N   6.31337809457752     -2.13127814653467     -1.13393447294947
  C   5.54701313382310     -3.15600369092911     -1.13521285765331
  C   5.97207313892679     -4.47242160346931     -0.69829151865375
  C   5.18890232252996     -5.07276217597081      0.22917827014641
  N   3.87559353054983     -4.71216056634458      0.57300382718042
  C   3.45978714740976     -3.60995095451630      1.03951881844413
  O   4.20524300227793     -2.58865969077958      1.47607823203915
  C   5.65402761833050     -6.27123157777547      0.87114081027856
  C   6.05258728840074     -7.25924706520561      1.42290411993472
  C   4.10582264379730     -0.83172222961285     -1.15645219949724
  O   3.94290161397527     -0.66546836455211     -2.36991494503308
  H   4.58883642062332      0.56742455025965      1.42899244949499
  H   4.46289143639397     -3.04659097900890     -1.16212432208935
  H   6.95857380683664     -4.86410542480170     -0.90153854358501
  H   2.38414878795333     -3.46814219202862      1.12943241551383
  H   6.40558469991010     -8.13422832925516      1.91184651605277
