25
Coordinates from ORCA-job 15910optt
  Br  1.99637948514551     -1.59686962035691     -2.28850829429428
  C   3.26164797517585     -1.36284717535321     -0.90555120246060
  C   2.89869609608742     -1.34786684753738      0.40570011171947
  N   3.75170902170666     -0.84480253843166      1.33433846269215
  N   5.13774202265663     -0.89337424854243      1.15240200575161
  C   5.54142104551630     -1.29487988130845     -0.05428824843230
  N   6.55545999062515     -2.37154578647880     -0.09221487560966
  C   5.74009826332632     -3.51585760457386      0.19113908223949
  C   5.00350331180342     -4.19471840764899     -0.76049378388098
  N   3.76175742827846     -4.60719126115982     -0.38745215318468
  C   3.51781055104703     -4.33795791812964      0.86713468535075
  C   2.12542401295260     -4.21082212844191      1.41210031516539
  C   1.32140484412791     -3.12031559400832      0.67542539534829
  O   1.71030577343006     -1.75865952417945      0.93039872886824
  S   4.86901453243113     -3.65684550515751      1.71255697355282
  C   4.67325086829520     -1.28539652762689     -1.24550485314462
  N   5.08127605256503     -1.34213683097003     -2.46206257805397
  H   3.50100053295704     -1.07076956130993      2.28678051977023
  H   7.25344357382510     -2.20391782742572      0.62093733204438
  H   5.29317697384026     -4.24465046005689     -1.80020079798669
  H   2.14594272359499     -4.00407161249082      2.48478572023176
  H   1.56712903491824     -5.13975291218466      1.25587410280677
  H   0.28109938209203     -3.15518565345335      1.00019664593973
  H   1.36900044638166     -3.32650104111733     -0.39217947332281
  H   6.10030605721995     -1.37706353205599     -2.44831382111051
