16
Coordinates from ORCA-job 15925optt
  Br  1.54540535930620      1.14464980835393      0.31794929738082
  C   3.29549079800105      0.47351189191945      0.07703695439344
  C   4.38282867628032      1.24148983952450     -0.07365401827406
  N   5.67110482300181      0.72167455056362     -0.19111541997906
  N   6.70795611890458      1.49911320745983     -0.74646987825457
  C   7.04069043909532      2.57943624963646     -0.10208125920969
  N   6.44051672125352      3.26197845542036      0.89361558779655
  N   5.13095388774936      3.34827783248622      0.92160278994815
  C   4.30184034593785      2.75577517882594      0.00292488926655
  O   3.40260260319183      3.34464561399553     -0.56519258934832
  C   6.07564750390013     -0.57262136417192      0.04952529926345
  O   7.22292238105992     -0.93314657224239      0.01122282807542
  C   5.01234493801376     -1.64672500760436      0.31946000017643
  O   5.33612656228234     -2.77943766082031      0.53490998855246
  S   3.29976777941055     -1.25984313805292      0.20430132125072
  H   7.98780106261138      3.00022111470605     -0.43503579103828
