21
Coordinates from ORCA-job 15926optt
  Br  0.79003519768422      1.08411877807499      0.66089732873562
  C   2.55051585028666      0.55890016050745      0.24890432227465
  C   2.87816512846417     -0.74343350922452      0.35132834869465
  N   1.99271094027947     -1.74334271668454      0.80410170590715
  N   1.66770671150401     -2.62756227520198     -0.28709165862229
  C   2.63490914657748     -3.37893500408912     -0.61515211373728
  N   3.93927695791790     -3.45473191937225     -0.10572061667164
  N   4.64635188082959     -2.44614883592063      0.16804538979800
  N   4.21196834356454     -1.18598098574494      0.10355344594731
  C   5.21933879527966     -0.22125750978707     -0.04361010114605
  C   6.56666573591086     -0.32748666960264     -0.18053504432380
  C   7.03348396374591      1.05722613797340     -0.38900297205845
  O   8.20280249359294      1.40873170799054     -0.54113211846766
  N   5.93304594973208      1.92787910803334     -0.39141493098356
  C   4.87576504060634      1.16904223783621     -0.18519708148200
  C   3.50252625505225      1.62697847904793     -0.11752412109324
  N   3.11144550232541      2.83504319608347     -0.29878814785309
  H   2.45813634741869     -2.29294635114755      1.52613543856631
  H   2.44808536941057     -4.13341317516611     -1.37512767686540
  H   7.19055013315909     -1.20413296985533     -0.16386698987238
  H   3.94351425665812      3.39145211624935     -0.50780240674684
