21
Coordinates from ORCA-job 15927optt
  Br  1.61496362871209      0.58270910743797     -0.46748194513383
  C   3.36208849461716      0.08649459689816     -0.05161117481646
  C   3.82733884615698     -1.16431126415656      0.07005834690540
  N   5.22169885989307     -1.32313819523800      0.16638412071103
  N   6.01765270123212     -0.36294124390908     -0.42068425815219
  C   5.50307910195307      0.78482081869114     -0.48779393640590
  O   4.26668112349174      1.14611873018301     -0.00526596926485
  C   5.55106587821231     -2.68112766903547      0.09446613620805
  C   4.34032978626195     -3.40283003801882      0.08111640777973
  C   4.18023935405877     -4.80348991413323      0.20213983073437
  C   5.15825076407141     -5.73665586079672      0.12840217963218
  C   6.54038276005961     -5.47908151345303     -0.21978033604758
  N   7.26079934979465     -4.42365583069699     -0.21203503680873
  C   6.90183849927640     -3.13985042297265      0.27642629781617
  O   7.78047860690135     -2.44442312748495      0.76335130233827
  C   3.21332902976548     -2.50413803392558      0.06780182909732
  O   2.00221628419383     -2.76679338446219      0.07584556059976
  H   6.04552342893960      1.60393518651864     -0.93731217154425
  H   3.15103753146539     -5.12580081372438      0.33381824894844
  H   4.88608042350528     -6.78298670786271      0.20173233921982
  H   7.06092554743764     -6.36785441985847     -0.59057777181677
