22
Coordinates from ORCA-job 15936optt
  Br  1.14472276529376     -0.41905863138620     -0.21999096446671
  C   2.94031628962869      0.07955584378465     -0.29420607351829
  C   3.50605680006964      1.28398570846184     -0.12272383032468
  N   4.91901656007160      1.28929949448234     -0.08768786633037
  N   5.54590446843113      0.14852428781850      0.37080912926185
  C   4.93178309863031     -0.93010783212928      0.17250001391489
  O   3.75643278090888     -1.03534025127831     -0.51428903763814
  C   5.71114603871989      2.47949062930976     -0.07196698728521
  N   6.98819816683360      2.42836493496144     -0.01700154298818
  N   5.05173057178468      3.66910342705506     -0.12978025404170
  C   3.73677418857804      3.71928640278481     -0.04377073773250
  C   3.11012714120035      5.06271850014079     -0.01193372486965
  N   3.78497791351663      6.16599065836959     -0.08276827722203
  C   1.67887553661096      5.06042331385144      0.11559236098451
  C   0.98751004330903      3.88927235899547      0.18286552650548
  N   1.54762178020328      2.65633162251156      0.12503900392991
  C   2.86159193928526      2.59055763226661      0.01411994150289
  H   5.33014352720079     -1.86954869350409      0.53000653189831
  H   7.29241985330185      1.46062034384394      0.02824501093863
  H   4.77380926917945      5.91874028519942     -0.16457273438678
  H   1.17199887498060      6.01612693540804      0.15663978616269
  H   -0.09315760773848      3.89766302905257      0.28487472570508
