23
Coordinates from ORCA-job 15930optt
  Br  8.81308429378027      3.29448696766406     -1.04603979038481
  C   7.68695694495491      2.90863134673319      0.39521991039279
  C   7.18946808475046      3.77162280216422      1.27927493766070
  N   6.28867408429478      3.20619096759211      2.22365391794441
  N   6.68709063775139      1.95026555430362      2.70507675949471
  C   7.28389948312137      1.21368759838292      1.85833062652354
  O   7.32375281488371      1.58586138621713      0.50950194149310
  C   8.25552629804088      0.20492937311635      2.26854316561399
  C   9.55932337171321      0.69786178015205      1.79569545371269
  C   10.07403300741555      1.68365303745924      2.57634444666104
  N   10.54836381585293      2.85157481018657      2.02310496766524
  C   9.85676582404354      3.87811402092834      2.51226625780336
  O   9.12563678523405      3.96254264498587      3.51847208174102
  C   9.82094901712267      5.10123937713684      1.61815798766339
  N   10.80065760878080      5.69234362389550      1.07443781847621
  C   8.46558816741496      5.72087357099466      1.41380427626094
  N   7.33313211729231      5.15874181274341      1.30512991173458
  H   6.21323524883752      3.81688571076444      3.02772411738533
  H   8.14998583415315     -0.09481753826911      3.30459911559940
  H   9.70419618642850      0.79732524234487      0.72562408809302
  H   9.81805713510100      1.68523496228144      3.63703431376244
  H   11.64463052613778      5.14019526882750      1.24825680538235
  H   8.48399271289408      6.80755567939472      1.32878688932052
