21
Coordinates from ORCA-job 15931opt
  Br  1.09815346438004     -0.61581010967833      0.69405896864582
  C   2.80070784929795     -0.30699931987861     -0.19046734574986
  C   3.44382906662822      0.91400601634174     -0.04490114010203
  N   4.85646577056223      0.93634421894021      0.07850291705453
  N   5.62653009631471     -0.18261103522708      0.07589308988800
  C   4.96372916928911     -1.27099707930109      0.05266467752214
  O   3.62966887080246     -1.44450307262777      0.01692976226299
  C   5.71413537224531     -2.57914697840991      0.05339587513425
  C   5.28742104356307     -3.42535477567674      1.25650168301115
  O   6.06541132118768     -3.86459866277185      2.05302838816035
  C   5.44928150227242     -3.35649482862313     -1.15828537719255
  C   5.21271228514144     -4.01617524533392     -2.12907687920889
  C   5.34282456435974      2.20517972292767      0.07844371905210
  O   6.47492520514108      2.60140328869002      0.15084797061639
  O   4.25101730626652      3.02222959332621     -0.00827967422487
  C   3.05392325471120      2.27053834930487     -0.10644241619321
  N   1.91294251203842      2.83192853146718     -0.22096640835571
  H   6.77663205173381     -2.35950220606965      0.14751841614624
  H   4.20132736408475     -3.60428061833268      1.33046698750559
  H   4.99792093421910     -4.58399510463688     -3.00161603645054
  H   2.02944099576048      3.84183931556980     -0.21921717752187
