21
Coordinates from ORCA-job 15939optt
  Br  4.80674192277074      3.46936990543070     -3.25222360732120
  C   5.69483616214530      2.17977424491814     -2.23289604775438
  C   6.13934542376359      0.99975584382102     -2.65248831266104
  N   6.71818796944522      0.17118441246369     -1.63371006405805
  N   7.55502465133701      0.88384212810918     -0.76740546709060
  C   7.19623019037664      2.06139830872385     -0.53529351588078
  O   5.97054574192861      2.57965280533757     -0.94668738180623
  C   8.20394606010924      3.04457176230566     -0.03516814944202
  N   8.45070423813876      3.17701397008929      1.19388761726261
  O   8.85534747966342      3.72114381384429     -1.00133892493512
  C   8.37021548492580      3.78039227872837     -2.36150895914218
  O   7.87580855889911      4.83681339251217     -2.71419466277982
  C   8.62272939726668      2.60056590101870     -3.13917454015714
  O   9.22990241028572      1.57920680347868     -2.81250246959816
  S   7.91773805733667      2.70412493795203     -4.85181533435692
  C   6.95570120520308      1.25507921617384     -4.97331014888705
  C   6.24945249225142      0.58312694826833     -4.05119147086822
  H   7.31112256514621     -0.52948835429250     -2.06106276632839
  H   9.19750062635127      3.86335640130673      1.30799782850571
  H   6.93845416596366      0.87348843063440     -5.98937898143140
  H   5.76546519669161     -0.34237315082421     -4.34853464126954
