19
Coordinates from ORCA-job 15944optt
  Br  1.04397888962694      0.48590259156540      0.20155316685078
  C   2.86255689829852      0.12896984706484      0.07707668423637
  C   3.47586478745694     -1.09559142435482      0.02084417158359
  N   4.90521706588569     -1.07479111967872      0.00735752299343
  N   5.57920451903519      0.10805840027852     -0.01105709160749
  C   4.90955843486582      1.18746633834749      0.00842861048095
  O   3.57779935340753      1.32472279699656      0.05461714514273
  C   5.69770462069722      2.44329782507700     -0.01992815399640
  O   5.22068321757714      3.54421554187579     -0.00575972314452
  C   5.70583124858961     -2.21055283586466      0.01643304524250
  O   6.91065210359342     -2.13509300643035      0.01332913063457
  C   4.96390836230005     -3.53523392998663      0.03132043550192
  N   5.66000851843085     -4.61783937669649      0.06815993091499
  N   3.61363504136734     -3.54543099587078     -0.00579199953916
  C   2.92258559497817     -2.40209158347692     -0.01886868173799
  C   1.50333447140280     -2.60313466469306     -0.10970824717785
  N   0.38107873850965     -2.84159803445398     -0.19592772473567
  H   6.78253380226243      2.25335279150348     -0.05613256044418
  H   6.64386433171465     -4.35062916120266      0.08305433880142
