22
Coordinates from ORCA-job 15943optt
  Br  1.22089563635358      0.35063630709093     -0.42724651054107
  C   2.92443491831912     -0.03890881779376      0.49756479692166
  C   3.60317620021047     -1.20439408459690      0.16659118603289
  N   4.99592682578780     -1.12141989998858     -0.06991036484290
  N   5.65226410751816      0.05091431094740     -0.33946410716689
  C   4.95652470645093      1.07840579118089     -0.06062738298713
  O   3.73223190414424      1.13432137773442      0.48250740523340
  C   5.40782407125940     -2.36438247866695     -0.36426308953757
  O   6.72719135907551     -2.55176350295666     -0.65539042335734
  C   7.09588935159398     -3.81203653855454     -0.92590958821933
  N   8.31327742286821     -4.07320064713944     -1.11118448637424
  C   8.60611721410822     -5.46818187697476     -1.34995121774548
  C   9.38660390250983     -5.65925702810592     -2.58236586458414
  N   9.99625772511983     -5.85254323984810     -3.53253538522017
  N   4.49782927134129     -3.27389347858828     -0.30153387510772
  C   3.28144840801750     -2.59660584152953      0.02846050277471
  N   2.12868049902965     -3.16152491689801      0.18162136025893
  H   5.39241786129973      2.05525861655603     -0.22540341915354
  H   6.26763137259656     -4.52217848267987     -0.95369193300137
  H   7.71369613764947     -6.10250103884051     -1.42170866815626
  H   9.21833729550678     -5.85294050296732     -0.53014400392318
  H   2.24034380923961     -4.15880402738046      0.01258506869675
