20
Coordinates from ORCA-job 15942optt
  Br  1.19163921441874     -0.14165152862462     -1.24502119142471
  C   2.84050146474649      0.12332884740947      0.35360536795944
  C   3.56972686527590      1.24903380749149      0.41457539280183
  N   5.00232112084247      1.17411352655477      0.32306326878103
  N   5.50933724131229      0.13568932983097     -0.44934766137424
  C   4.77944106007251     -0.89821046079784     -0.41379887360136
  O   3.62014675012235     -1.03753629860389      0.26978703181658
  C   5.56369965706711      2.41541886101045      0.21286849008903
  O   6.89654107066889      2.41740853647414      0.00933833106226
  C   7.45041093654183      3.69983740426478     -0.12158154135274
  C   8.88873304163820      3.56853952605587     -0.37328229146129
  N   10.01585215744189      3.52484821440279     -0.56645235839044
  C   4.73413519602837      3.46727984631917      0.35470977367448
  S   3.07750543561682      2.92618971697572      0.52556862936550
  O   2.58507206753617      3.24443347093265      1.84517377234979
  O   2.27152502178463      3.37916902756945     -0.57615284232950
  H   5.07866196028189     -1.77778475419232     -0.96753059978216
  H   7.30898924149735      4.28355476367522      0.79341981058049
  H   6.98816280699926      4.24006382541818     -0.95358816349622
  H   4.97659769010665      4.51127433783348      0.44464565473224
