21
Coordinates from ORCA-job 15959optt
  Br  1.32252383638767     -0.16367780074523     -0.41033500708302
  C   3.22675662894961     -0.04652063391175     -0.24399521664299
  C   3.87397784189083     -1.16092493139554      0.16879658941900
  N   3.50310167611583     -2.43766151835683      0.60775168091620
  N   4.66348588118086     -3.23745181104973      0.71876111547837
  C   5.63077017069035     -2.40652012559418      0.56410815676105
  O   6.93833524306497     -2.72144732738320      0.72597267015555
  C   7.72255216815927     -2.50544260684985     -0.37501563885784
  O   7.33904228186018     -2.60671192895949     -1.49341209186314
  C   9.13988390220913     -2.18230440426929      0.04585932399341
  C   9.79289827075244     -3.28231819558275      0.75038492163134
  N   10.33298272523773     -4.13832267379534      1.28817471598985
  N   5.25792960575423     -1.13614721701657      0.27406115847987
  C   6.01855002373244      0.05670961324939     -0.03797690935531
  O   7.26276999309938     -0.00699513964282      0.08725288954368
  C   5.19845954216623      1.10817404900384     -0.43954764462463
  N   3.83612393388747      1.09713357094696     -0.55654085503443
  H   2.74127846747908     -2.89939871727809      0.13241345941177
  H   9.07300225996846     -1.30215485551347      0.68714967384311
  H   9.70588091611314     -1.93465200780909     -0.84911155719381
  H   5.70069463130028      2.03363466195312     -0.68875143496802
