26
Coordinates from ORCA-job 15958optt
  Br  1.27209128597066     -2.42873496728893      0.44990824051362
  C   3.16403175281779     -2.10337073182167      0.47820825163723
  C   3.96881447881882     -2.54790293174238      1.55056947620485
  N   5.22026038282646     -1.84885396568359      1.62437627048128
  N   5.98653379699646     -1.98084189631206      0.40477654332880
  C   5.27551701644429     -2.09811501321502     -0.63939547311445
  O   5.90861400972112     -2.49363805682503     -1.79651852868404
  C   6.64699249519942     -3.63563377007404     -1.85114086245159
  O   7.29276201226679     -3.83583151601022     -2.84044359458924
  C   6.59655458177985     -4.62350954278464     -0.69621553995211
  C   5.24069116861441     -5.32152496964709     -0.52404249412938
  C   5.16844626669085     -6.08040710288537      0.81621238966255
  O   3.85217901774741     -6.10481898866094      1.37336607546487
  C   3.35355202267494     -4.86286291114711      1.65942923919096
  N   4.13513781326274     -3.88845216595327      1.79845460041087
  C   3.80221550567402     -1.84516123339735     -0.76039196431228
  N   3.33955387094659     -1.53001135544344     -1.93711740783559
  H   5.06980246732545     -0.85638972964812      1.77712530984481
  H   6.84272177057356     -4.10187401467493      0.22677870509762
  H   7.37923131276971     -5.35026204070614     -0.91095480389824
  H   5.06487965397559     -6.00700874886716     -1.35516858309282
  H   4.44256993042036     -4.58043592989446     -0.55357214081430
  H   5.85458255495347     -5.62744653524139      1.53351451007803
  H   5.43379214870218     -7.12980404898981      0.68911408372815
  H   2.26500792102562     -4.86253022593009      1.66495962810722
  H   2.33046476180118     -1.40257760715558     -1.86983193087683
