22
Coordinates from ORCA-job 15965optt
  Br  5.22605397266138     -0.63252452188735     -0.50000421286679
  C   6.87948498235384      0.21356294563645      0.27332432102379
  C   6.63491239209239      1.62878770220016      0.52961075217052
  N   5.41592026879703      1.94518995525534      1.21662504968757
  N   5.71555515528199      1.72130053347256      2.59290106829643
  C   6.49212925525751      0.76327418395307      2.91815616172292
  S   7.25453701830341     -0.43824023462815      1.85471940271710
  C   7.18997285943963      0.95988950969267      4.24577326809878
  N   6.79363928448076      0.60481659082407      5.40279782883145
  C   8.45764787710740      1.70046455927003      4.06506896818687
  N   8.74930754597505      1.98343401962239      2.83882337631977
  C   9.76537697925691      2.58951796768990      2.24515965438516
  N   9.87161873954324      2.56885470615591      0.87865752774939
  C   8.81812692805555      2.36696413722854      0.14049716976816
  N   7.53349410473287      2.54411666620687      0.54520235515767
  C   10.83002892426152      3.17826526458708      2.99755489492226
  C   11.66826488596422      3.65957017382851      3.71410235632117
  H   5.24352588492270      2.94287850694918      1.17734396076920
  H   5.89820028726522      0.12237608390981      5.32906663329207
  H   9.05230743364164      1.95916449670144      4.94480700173447
  H   8.99463670822375      2.14533737612908     -0.91232482483188
  H   12.41925851238168      4.08799937720237      4.33213728654384
