21
Coordinates from ORCA-job 15969optt
  Br  3.21166682970555      0.55301644398446      2.17378584445836
  C   4.83559055647440      1.47158405487611      2.79557371697118
  C   5.35824729086903      2.46227326666958      1.89972472556796
  N   5.61773599510260      1.94526670871077      0.59778959714672
  N   6.73297469347188      1.10079776714159      0.60200232579732
  C   7.01872440450575      0.44673955827886      1.65361602468620
  S   6.12614876521885      0.36121365666123      3.19462188272001
  C   8.40191727817011     -0.13459072493941      1.69889701541900
  O   8.71150242701532     -1.23641288003060      1.34379705222380
  C   9.50659927669352      0.79390366121734      2.25712768033110
  N   10.69300755600812      0.43449039938217      2.42690040431753
  O   8.99863914577564      2.03158724726179      2.46483063599842
  C   9.67051764426876      3.14437064142607      2.89471524744309
  O   10.75359230298853      3.15611331404334      3.38402822273330
  S   8.67953276984229      4.61094925578242      2.62399715339688
  C   7.29401760173915      4.00149161596936      1.75912931703960
  C   6.25833256443733      3.40613659506768      2.42716977223278
  H   5.76400045838687      2.62419577236887     -0.13445978673073
  H   10.74980815692228     -0.54796057551775      2.14968407783325
  H   7.45161931709408      3.83251242502923      0.70215724566519
  H   6.17482496530976      3.57632179661685      3.49791184474899
