19
Coordinates from ORCA-job 15968optt
  Br  1.22566688416957     -0.32637721995903     -0.74063165602651
  C   3.07452316954483     -0.04438720614082     -0.51019209885694
  C   3.65631900142479      1.14686776057302     -0.21532565843458
  N   5.08887806233262      1.10177868400255     -0.06291290105795
  N   5.64358365803259      0.10355449326512      0.72786283005879
  C   5.22422631234378     -1.07571173806735      0.56154734467196
  S   4.00855041627991     -1.52338310797289     -0.61977057921791
  C   5.97041598760278      2.18090774810804     -0.23987959323706
  N   7.22806524952970      2.10252956068940     -0.10058997842041
  S   5.33074951468276      3.73444236471748     -0.75031017464274
  C   3.69318311526040      3.60767166993941     -0.16873938394115
  C   3.03279084418811      2.41577924614842      0.00795625163886
  S   1.38422443768654      2.67726561393844      0.57372701314537
  C   1.59507968538075      4.47023422963196      0.57748185650728
  O   0.72811353880666      5.22495154180634      0.94256265935611
  C   2.96600393914429      4.81184947275387      0.08328658193547
  O   3.36496431411372      5.97543815084187     -0.07387335361514
  H   5.64966527449574     -1.85959391499260      1.17700117331267
  H   7.50399659498041      1.15318265071674      0.13879966682387
