20
Coordinates from ORCA-job 15961optt
  Br  1.70187079086802      0.76746179735616      1.18485385746916
  C   3.41394136124112      0.33336677829748      0.50882034704721
  C   4.33705797864262      1.33551320457584      0.19156915953308
  N   5.70445120034635      0.96392669593985      0.09430054014953
  N   6.75639794369394      1.79632415982848      0.27403297328905
  C   6.71230036888879      3.02603400167381      0.55736202802870
  O   5.72173261404382      3.92082984004549      0.69291154483231
  N   4.51774845853970      3.85314030485424      0.00088622538132
  C   3.94829783473150      2.67312352241749     -0.12568705281729
  C   2.69136376034051      2.85761667149275     -0.82165732046002
  N   1.75285482116980      3.04860597993077     -1.45437344875245
  C   6.10076471760210     -0.35307346436980     -0.16400459745040
  N   7.29515134373024     -0.72018793210561     -0.38540982743605
  C   5.02278523074208     -1.40752039019684     -0.14850448023339
  N   5.24568477094386     -2.56948909550677     -0.59316351563603
  C   3.68952872321223     -1.06725614457289      0.46151871415184
  O   2.93196218202135     -1.94931534845146      0.84596363655336
  H   7.66232471756921      3.50380211570707      0.76718661794502
  H   7.92072418563044      0.08088981489850     -0.34887710731194
  H   6.21105699604217     -2.59479251181457     -0.93572829428300
