24
Coordinates from ORCA-job 15967optt
  Br  1.66453469862235     -2.60954268218460     -0.70317824892500
  C   3.13917856797386     -1.58876516997142     -0.10743196450345
  C   3.79053479463213     -1.85062115915315      1.05318787310387
  N   4.86731976912921     -0.95032330574670      1.37583808925764
  N   5.97939084485083     -1.31561695096468      0.49687550439576
  C   5.69233333437755     -1.28405903488669     -0.73209486050729
  S   4.08067674236231     -0.76665791462464     -1.34308574885990
  C   6.65599730120249     -1.78274026468388     -1.76359337543622
  N   7.25940071076121     -1.01404081936824     -2.59462874907519
  N   6.84046578393078     -3.13401275615028     -1.79970595458549
  C   6.25502970509204     -4.15700998873203     -1.01520156059610
  C   5.01668124014729     -4.07652684427405     -0.51086318725941
  C   4.40729834603190     -4.94832167401583      0.49076208612738
  O   4.63735570525240     -6.18538622769534      0.53530745808167
  C   3.59719460214464     -4.34451283369872      1.56241291727414
  N   3.02268354074229     -5.02779270027229      2.49481640663767
  N   3.68263098996872     -2.92893479668238      1.85284620758680
  H   4.58441973404957     -0.01153710123704      1.09080776441279
  H   7.03397190938324     -0.04257922050389     -2.40588933238186
  H   7.55036051167669     -3.39861165677716     -2.46687116732520
  H   6.92168499572204     -4.97595924746379     -0.77762106812197
  H   4.41949064782465     -3.25353608722213     -0.85575188022507
  H   3.17374119482570     -6.00908273255582      2.25746936708088
  H   3.97362432929602     -2.77382883113519      2.80759342384357
