20
Coordinates from ORCA-job 15978opt
  Br  2.58323593521672      0.61052416101165      2.11189559668988
  C   3.73597080937075      0.25845888310104      0.65505951085660
  C   4.76948230403006      1.13891021171522      0.25814678623344
  N   5.73072457691684      0.48511940612945     -0.52969208713144
  N   6.75872625425523      1.36520335780800     -0.83790952473303
  C   7.40165971682738      1.57900882705697      0.24158355082428
  S   7.65160913136194      3.27075769486485      0.56108643319682
  C   5.88806800689888      3.63198938735137      0.31229453593342
  N   5.55768488279701      4.84366852280305      0.15803726909238
  C   4.74146706587199      2.59144380917906      0.43429897293454
  N   3.58061668468240      3.10607955330348      0.70835851051293
  C   5.51654897252802     -0.67385346419544     -1.32133537305951
  O   6.33732779976809     -0.94013125242937     -2.17658233777925
  N   4.43758664364583     -1.41384349406013     -0.97644404289859
  C   3.66252839212294     -0.97550874771332      0.02441239316180
  C   2.64726483004763     -1.92583000561925      0.43605331017927
  N   1.85782253993265     -2.70267340863526      0.73716264252949
  H   7.39902460005880      0.87848617345319      1.07642913580911
  H   6.35802708110996      5.47007337739374      0.13495949230411
  H   3.67662377255652      4.11111700748159      0.83618522534375
