24
Coordinates from ORCA-job 15979optt
  Br  1.18549172193318     -2.46502254148565      0.32425239289858
  C   2.98010561599841     -1.86388994016216      0.31666406737327
  C   3.79224692950012     -2.02579456831416      1.39558850732293
  N   5.03332754394274     -1.36651462050799      1.30533494470896
  N   5.72603523539719     -1.50175784093605      0.13332210996990
  C   5.04367306191444     -1.68636877497800     -0.93352459295856
  S   5.88521473976371     -2.48606380268273     -2.27036166724715
  C   5.50793033203546     -4.25025179584713     -1.86052481628098
  N   5.30743909922560     -5.04777588188836     -2.84998475337621
  C   5.48514697487420     -4.63947938161686     -0.48469288844589
  N   5.19154520259992     -5.88633727345406     -0.08375833029375
  C   4.84857504816241     -6.19861099801264      1.15474413289891
  N   4.33614590408701     -5.44965487412472      2.13885675002424
  C   3.77511620043657     -4.29532707207272      1.75308703021789
  C   3.74799159330442     -3.08210993708840      2.39400984115964
  C   3.56027224623390     -1.50228124725025     -0.97030460246471
  N   2.98103045248419     -1.18286468085915     -2.05814980550548
  H   5.65793937924833     -1.58749608821279      2.06679579305978
  H   5.28312213102818     -4.53897895884123     -3.73074415815057
  H   5.78664714179788     -3.90288686655983      0.25316445699768
  H   5.01399278620597     -7.24293741610094      1.41785747699833
  H   3.35258630943169     -4.29983990338775      0.74733941339236
  H   4.27202916482531     -2.95187537622802      3.33395700093337
  H   1.97339518556907     -1.12588015938835     -1.90892830323254
