24
Coordinates from ORCA-job 15976optt
  Br  1.79560271689168     -2.83529184769712     -1.75380965748158
  C   3.23108212328832     -2.18424648399585     -0.72358378506154
  C   3.30159230897351     -2.36175672130852      0.61641439917680
  N   4.34523937633943     -1.78326893560904      1.29537049343112
  N   5.53530561932701     -1.54959575513849      0.70504472083977
  C   5.56783966221239     -1.56110522311396     -0.58860007987326
  S   7.03387503922076     -2.31190474152063     -1.30913902689387
  C   6.57309759011866     -3.89068234077447     -0.64247716944877
  C   5.43511893962866     -4.53634614718470     -1.11759952005163
  C   4.39341715036596     -5.10143482353261     -0.33267911385642
  N   3.34136722820012     -5.67643570413247     -0.83524621662509
  N   4.53887087078992     -4.96043204018083      1.10452542006782
  C   3.59024811726955     -4.63943332399419      2.03148454245660
  N   3.53049154292504     -5.03939589874022      3.24299664437160
  S   2.30507626830788     -3.45103530224612      1.57788993454651
  C   4.32628352516288     -1.49967286182279     -1.40712509637983
  N   4.33145674660964     -0.98434124951120     -2.57218834490328
  H   4.41965782693967     -1.97187930038731      2.28327568088772
  H   6.82084634049015     -3.96119710292225      0.41146430361032
  H   5.21327583563171     -4.50728186920713     -2.18004200208924
  H   2.71044707231462     -5.98067204976262     -0.09772907347518
  H   5.41849404510536     -5.26580752544916      1.49492491135372
  H   4.19334688895450     -5.80194046775602      3.38759056116196
  H   3.40396716493249     -1.06084228401223     -2.98976252576425
