20
Coordinates from ORCA-job 15971optt
  Br  1.82731531795352     -2.26936032889685      0.70774051526470
  C   3.42974878466145     -1.25097452972002      0.57398091908671
  C   4.02933562976470     -0.85519262159009     -0.59161483286998
  N   5.19155250430858     -0.15527589040739     -0.68835366219485
  N   6.12701234073804     -0.26804023492163      0.23730544279516
  C   5.90174589333335     -1.23965271573252      1.18186463005753
  S   4.34076791525823     -1.11648905389725      2.05531393356502
  C   6.74617227987637     -2.29108910983628      1.26438782179380
  S   6.45689653126596     -3.79985151772978      2.09580255970588
  C   5.71892506365520     -4.84555414718485      0.90780932645344
  C   5.13313470807824     -4.69808546663118     -0.29778534015573
  C   4.90323132538945     -3.44571619298103     -0.99754873806483
  N   3.87118381215967     -3.26618858078280     -1.73153566086259
  S   3.59176512556746     -1.64194182277224     -2.15482309063111
  O   4.53688500559920     -1.25615149790180     -3.15923281106556
  O   2.19126754550170     -1.54919998026654     -2.43583780114186
  H   7.61187230839312     -2.27415059205298      0.61122360213475
  H   5.69490808697036     -5.84719709336142      1.32992112620131
  H   4.64584380751552     -5.57123023877182     -0.71777913939919
  H   5.61143601400973     -2.64465838456146     -0.81083880067261
