20
Coordinates from ORCA-job 15987optt
  Br  1.13263744164181      0.03965650224897     -0.84869858215231
  C   2.82574937475175      0.13052492499853      0.09815892673132
  C   3.64982706231558      1.27515268615002     -0.03115482007340
  N   3.46571858296358      2.62105787437317     -0.15144325942086
  N   4.60841800759457      3.23286539121544     -0.14497682501972
  N   5.57676996929590      2.26625244799334     -0.00066919203950
  C   7.00280737833286      2.44507145005973     -0.01061210028009
  C   7.49023119558426      2.97712581430750     -1.30142992978326
  N   7.87322404365766      3.38678889631967     -2.29992131723253
  C   7.77719383322664      1.11369638865481      0.29163757529976
  O   8.97684093159023      1.20817674599303      0.47773742917688
  N   7.08299583559930     -0.03796979388192      0.31411847491416
  C   5.68508014170057     -0.13660239938860      0.18454102558505
  C   5.01771002404494      1.05372623869808      0.05289982273513
  C   4.91413904487032     -1.31280806148679      0.26326880587920
  O   5.33222331316953     -2.46454540741767      0.42548530661940
  N   3.52193735163812     -1.08047060825390      0.15954207348074
  H   7.31353121922444      3.14923502681840      0.76534841867819
  H   7.60794752111977     -0.88173865188468      0.50080377618068
  H   2.98101772767789     -1.91919546551714      0.30836439072116
