23
Coordinates from ORCA-job 15986optt
  Br  1.80541712539903     -2.14341174679412     -0.42276177989657
  C   3.10644395072073     -0.75123717852267     -0.27670313602408
  C   2.66923044454302      0.57223072531583     -0.07766352781208
  N   1.34224435371491      0.75354514747784      0.01758432097545
  N   0.55661611382042      1.73666676611603      0.14180150168078
  N   1.04624802207139      3.02183501501414      0.17479052404319
  C   0.14423185988609      4.05149746624317      0.23722478773276
  C   0.74585598755404      5.25611247729751      0.15026199675955
  C   2.18483586900748      5.01490201435113     -0.00110909188203
  N   3.16801764013151      5.82989051340814     -0.11667017954362
  C   2.32276952611851      3.54084329560591      0.02144430240618
  C   3.49611114976510      2.88328570770344     -0.04535288328370
  N   3.72347570290702      1.53966065778716     -0.00750930178525
  C   5.08902577970814      1.11333069333693      0.11206277431216
  N   6.07570834429780      1.86961405286482      0.44660261969470
  C   5.31378203403167     -0.26521320684537     -0.19093780447763
  N   4.35057911200040     -1.15130067221666     -0.37546909009725
  H   -0.89805921816738      3.79017398288352      0.33828467657934
  H   0.26774655651570      6.22101443586788      0.17961394924447
  H   2.82900689531534      6.78891394144292     -0.08379353736395
  H   4.36269992743691      3.51289367057122     -0.17405883067822
  H   5.79548530354822      2.80336183896852      0.72081447047714
  H   6.34252751967391     -0.59660959787733     -0.21245676106133
