21
Coordinates from ORCA-job 15991optt
  Br  1.05232469487086      0.02413854412776     -0.08843414953049
  C   2.95013309737570     -0.01955271327816     -0.03765524130743
  C   3.66814933302029      1.19454767188676      0.06924278525064
  N   3.03118799427618      2.35687863796839      0.12944881731335
  N   3.62027531754973      3.52332355118759      0.15041626494056
  N   5.01894745850122      3.45815954637867     -0.01989503151991
  N   5.66867810777117      4.60494436186771     -0.20825570768939
  C   6.93084980683649      4.39891938823919     -0.32353690633720
  S   7.42214859546494      2.73041444186957     -0.21072451998910
  C   5.74497435304702      2.30624227494261     -0.00618671878262
  C   5.12997459429198      1.09009779201467      0.09508806228433
  C   5.84722848168853     -0.19511233320180      0.12299871992094
  N   7.12537972548490     -0.33203678414863      0.30914098260549
  C   5.00039602739302     -1.35144822855097     -0.09491661804918
  C   5.57672247433473     -2.66581923904087     -0.22818912840284
  O   4.94625477554184     -3.70172757546822     -0.40754976926258
  C   3.60854704284118     -1.21681634177083     -0.14323009450738
  H   7.63497742208371      5.20054640908501     -0.47302398165447
  H   7.58470877732798      0.53707584874043      0.55303105184141
  H   6.67586631868507     -2.69235553423241     -0.16534052749088
  H   3.04227560161335     -2.13341971861649     -0.26142828963325
