20
Coordinates from ORCA-job 16005optt
  Br  2.92843058078290      3.17994524251381      2.03175859427878
  C   4.08801975312590      2.33345798912395      0.81417699598380
  C   3.66457901130571      1.88354765518061     -0.43074301008573
  N   4.41189171199260      1.08025981067424     -1.16287254962590
  N   5.57197852297558      0.64752965954504     -0.62086078086994
  N   6.13279922661454      1.30965012035645      0.30865097440398
  C   5.48690362646615      2.37111770916981      0.91641756994111
  C   6.28815189218393      3.42759981103135      1.40348948313624
  N   5.92338652552030      4.66978250995726      1.64231455577438
  C   5.02278174870677      5.46290494456321      1.05012587290828
  O   4.33730327556977      6.32344849579871      1.57218849448504
  C   4.95712089152885      5.44084751833449     -0.52310897571876
  O   5.63864566433262      6.15740416624971     -1.21148976599813
  N   4.12993613483048      4.45502041944557     -0.95169855525126
  C   2.93216473375340      4.12935222727196     -1.09674714243190
  C   2.56894914104595      2.65766622710868     -1.09245845818622
  N   1.48927461245349      2.17768068778220     -1.53838023525112
  H   7.32342395642647      3.16304590040437      1.61035019513672
  H   2.10596928911355      4.84603084203458     -1.17243463805038
  H   0.91028970127092      2.92170806345392     -1.93667862457901
