22
Coordinates from ORCA-job 16009opt
  Br  2.48226067171338      1.96045954338799      2.13187160764123
  C   3.45545686768892      1.97153990934932      0.49856921847984
  C   3.13998727279885      1.09854011569672     -0.56693059987782
  N   4.26400354759566      0.52266154102080     -1.13698287476501
  N   5.49803078171978      0.98394981132901     -0.96981738448484
  N   5.68688675231273      2.06540898937849     -0.34182314697829
  C   4.62633802084119      2.74191741665753      0.30825004938203
  N   4.86767061087766      3.97595083479356      0.64170594559356
  C   3.88923355661301      4.84964856590275      1.06355711460812
  C   4.48743775203934      5.97491412235732      1.84544630480871
  O   3.90570720520387      6.88110802244589      2.39260142639534
  C   2.55911030145016      4.99683236831739      0.85519150590481
  O   1.66986010834303      4.19340753449709      0.19455746070212
  C   2.01299468247224      3.58878266152310     -0.97535228125929
  O   2.84435112012261      4.04611138995340     -1.70767960303266
  C   1.21805479685123      2.34943340805621     -1.26803751705275
  C   1.87788916434691      1.16084305126786     -1.24183647843316
  H   4.20252454410144     -0.20777016902558     -1.82884954972417
  H   5.58945092956763      5.89476493245375      1.89120757692509
  H   2.07077108356564      5.83459720002024      1.33178716389207
  H   0.20160786356758      2.46134543117956     -1.62046187460372
  H   1.45537236620688      0.27855331943739     -1.71697406412121
