21
Coordinates from ORCA-job 16000optt
  Br  5.13655643437234      1.79739113082221      2.34413924267513
  C   5.17626103258452      1.20629180431086      0.54963486636599
  C   4.13544376750115      1.47092637861495     -0.38355599169325
  N   4.14058189830826      0.87411028272194     -1.54881305188902
  N   5.16059772691438      0.06528075256275     -1.89402208459079
  N   6.34159873862123      0.25256634452158     -1.26739609112846
  C   6.38830632008564      0.86506143652388     -0.11063496972398
  C   7.71680589544082      1.33132756855366      0.35728333525193
  C   7.94959402792214      2.62771245055833      0.53197205432950
  O   6.91355089666694      3.46559656113634      0.16763788266072
  C   6.82268494947489      4.76151526792111      0.43446384389627
  O   7.65431013300548      5.47101276997076      0.90528988537321
  O   5.59261835137416      5.19112114262808      0.05729283722621
  C   4.76760408287280      4.17103857855070     -0.42173597093385
  N   3.78286776817546      3.80166925293335      0.24365629683478
  C   3.15260725806019      2.58295758433505     -0.18975569985629
  N   1.90092067245985      2.46323726968745     -0.31840557826266
  H   8.51525088686165      0.62288694893647      0.53217261857010
  H   8.84962951143907      3.11082458829782      0.88190899109054
  H   5.11085651333176      3.73698951994685     -1.35977066194877
  H   1.45635313452716      3.36348236646579     -0.13536175424731
