23
Coordinates from ORCA-job 16002optt
  Br  1.36097273688446      0.84758839569328     -2.09615973385642
  C   1.93513562985541      1.43743966414445     -0.38784096847860
  C   3.22746883985261      2.03812733953147     -0.26534767240642
  N   3.52898822101250      2.42272016092070      1.06978372263428
  N   2.61786485074169      2.51740570691932      2.04096012441738
  N   1.40735751940989      2.52136912473043      1.73356633672982
  C   1.00683457584573      2.26961163544573      0.39299566271037
  C   -0.03935859753623      2.95394879394981     -0.10776424694593
  N   -0.62254617059467      4.07495176354502      0.50603941899888
  C   0.10091339518538      5.08745052473263      0.79010185732712
  C   1.53476608397932      5.36187598730475      0.56499393782957
  C   2.33957602571271      4.80559194812329     -0.34948119250648
  N   3.71074534941844      5.03037406492802     -0.43770084845133
  C   4.62779751476637      4.02338342367006     -0.72590884282336
  O   5.81427329827090      4.21382340718382     -0.58940419870989
  C   3.97044683021213      2.72901935202645     -1.25945372707557
  O   4.04988503824554      2.52392097975393     -2.47327260658087
  H   4.45797747267750      2.27688102817050      1.43025241259778
  H   -0.46820533280976      2.67224612142864     -1.06081106174377
  H   -0.41676805607987      5.89322220511669      1.31433875356465
  H   1.96808831053247      6.06944248710542      1.26745067477674
  H   1.95995638108808      4.10802288218853     -1.08228652162997
  H   4.10683008332934      5.80058300338701      0.08494871962203
