21
Coordinates from ORCA-job 16014optt
  Br  2.32354427731686     -1.73394499998636      0.73052545593723
  C   3.49562977468649     -0.27080842284164      0.68937662025144
  C   3.41091753717567      0.79352481982749      1.49718905944795
  N   4.45731963854229      1.71451934667599      1.32814238248134
  N   5.74318418936720      1.16770574444231      1.01270663929732
  N   5.71471674798818      0.31185924091561      0.06856270491059
  C   4.51651308349606     -0.17824784679550     -0.34937098346959
  N   4.25705656354784     -0.51979929911283     -1.61439592430451
  C   3.02331678207292     -0.19304051895513     -2.04838430632184
  O   2.34728373239117     -0.75271816251408     -2.89215788549954
  N   2.49377922078274      1.03863699626682     -1.45903973168029
  C   1.24616608194490      1.12133426507147     -0.89618824993609
  N   0.21741309969664      0.42989801168000     -1.13322607723099
  N   1.11099855980182      2.25358343436648      0.01343352045803
  C   1.02032907011549      2.26517642866864      1.38821365554350
  O   0.26521556584727      3.00898435418198      1.96286953247618
  S   2.04497857013728      1.24566661060953      2.49034205677761
  H   4.55431830873813      2.36708696833237      2.09281341992803
  H   3.18018766479002      1.62863525284830     -1.00918165819294
  H   0.44579353949359     -0.26150249642179     -1.85034636191107
  H   0.37233799206740      2.86145027274033     -0.32388386896238
