19
Coordinates from ORCA-job 16010optt
  Br  1.02906089655927     -0.22607956750090      0.07022158432264
  C   2.91041355455876     -0.09940644231531      0.06995023541257
  C   3.52784228218975      1.11353254311163      0.07020030679452
  N   4.93688084725263      1.10602820484953      0.07000876519811
  N   5.63990371319108     -0.01733900020440      0.06958996537082
  N   5.07679335206787     -1.16949961319445      0.06930063961002
  C   3.68065220238416     -1.31966526970776      0.06941660808118
  N   3.13876028805666     -2.47964757831459      0.06898609298271
  C   5.67769176562975      2.32049831449856      0.07029340236536
  N   5.14573699048854      3.53871790138435      0.07066419259587
  C   3.81605975488613      3.55441389277823      0.07079892618291
  C   2.99819825389034      2.42315332670166      0.07060715678015
  N   1.73708975915330      2.94006562825674      0.07088681573260
  N   1.77975034059482      4.27133514253403      0.07124041143187
  N   3.00153155681542      4.66525806501521      0.07116904718173
  C   7.08925254033342      2.18282306288464      0.07017156988118
  N   8.24099726486422      2.13477175216570      0.07002950139720
  H   3.88839308624731     -3.17016826291948      0.06862410514068
  H   0.85599155083652      2.45520789997660      0.07084067353788
