20
Coordinates from ORCA-job 16012optt
  Br  6.31618129818782      0.23860055672684      3.05263223899737
  C   5.85765198278785      0.29612636958191      1.23545842727664
  C   6.40582915466930      1.15030366852488      0.34013885445803
  N   5.91591962665999      1.13939053317648     -0.95491888497375
  N   5.07886740526079      0.19871903173138     -1.38178062108374
  N   4.60311334293316     -0.66594521371808     -0.60404997479045
  C   4.84517732958317     -0.64323467963308      0.78852913339619
  N   4.21600303659253     -1.42916019605974      1.57014004990366
  C   6.09576932665579      2.22783628731537     -1.95809103431232
  O   5.78704598482125      1.95810006523020     -3.11268072704721
  C   6.38830378646589      3.55010572383932     -1.52201879947176
  N   7.02493103035217      4.11600233764834     -0.50860880724135
  N   7.72890249067727      3.28852380712320      0.30751097019751
  N   8.84620259401023      3.76207661482795      0.86694960659525
  C   9.32552805211962      2.71054221570791      1.50798886534413
  N   8.58471910288280      1.59765053636342      1.40966113700072
  C   7.56810075599601      1.99125346170573      0.64903916539875
  H   3.58757267992649     -1.99571927386577      1.00060595989946
  H   6.04748601070594      4.27296254745670     -2.25538440316676
  H   10.24669500871180      2.76186560631703      2.06587884361963
