22
Coordinates from ORCA-job 16021optt
  Br  1.17099945593369      0.04769370264862      0.66869379511095
  C   3.00844203660921     -0.01084473755590      0.22872677117732
  C   3.61080588751179     -1.17054231402167     -0.12136148047145
  N   4.99850847764136     -1.05611047446171     -0.35150115671543
  N   5.39770860398483      0.15769651360606     -1.07597485704061
  N   4.77560544624401      1.20345225530947     -0.75201243814343
  C   3.71619269322151      1.25708264977241      0.13955594251641
  O   3.33033507410632      2.32449663039582      0.63625922095621
  C   6.01856382743642     -1.94694535667421     -0.17341739749249
  O   7.15713024151575     -1.70361111998820     -0.53452720008385
  C   5.82479969932907     -3.33206665619673      0.46516348224445
  C   4.55028093273173     -3.72914373085844      1.21128124638303
  C   3.37479311594874     -3.58010773799888      0.32863892368794
  C   2.95024688212597     -2.46196050610724     -0.28782749918414
  N   1.82554101118021     -2.77349013571988     -1.05409531580667
  C   1.65697121731408     -4.02794023209200     -0.85994545666871
  O   2.55971343955789     -4.60686211937228     -0.03161580264624
  H   6.68738458592574     -3.43288067409038      1.12489629726134
  H   5.98488505000022     -4.03578913841298     -0.35588890329699
  H   4.41439136855778     -3.09460191913250      2.09104026797178
  H   4.63799892659652     -4.75955886835501      1.55736595885117
  H   0.89970202652702     -4.67396603069432     -1.27245439861060
