20
Coordinates from ORCA-job 16026optt
  Br  1.84460740516202      1.07625105250079     -0.75840135818324
  C   3.62898653644825      0.62926206133184     -0.34947904967388
  C   4.03463506962385     -0.72095762750405     -0.27441552908535
  N   3.30607579996168     -1.86233495820540     -0.44377180576671
  N   4.06457381331214     -2.89084721555018     -0.29293797607517
  N   5.31847646445692     -2.44671380469228     -0.02093020840576
  C   5.37752727807280     -1.09465187343783      0.00773876598255
  C   6.37315246114943     -0.14019611969266      0.23028156194345
  C   7.79813926391657     -0.04146568765120      0.51270618113304
  N   8.71973325103384     -0.90039825194216      0.68277676901528
  C   8.13298671027259      1.51343866652438      0.59470462003088
  O   9.23980680969347      1.94981398613012      0.80779000812074
  C   6.86346792589449      2.16456455032229      0.35833312481258
  C   5.91236779305366      1.18307339407801      0.15147377963277
  C   4.58531731213769      1.63808581130833     -0.12347922152204
  C   4.57564880572334      3.03005520770305     -0.10621746997863
  S   6.13122295514399      3.72304901352119      0.22741096749173
  H   6.05064622976373     -3.11676131391973      0.12840685498848
  H   8.34185491807624     -1.84575588328710      0.59863195613232
  H   3.73077319710324      3.67848899246259     -0.27462197059305
