22
Coordinates from ORCA-job 16024opt
  Br  1.54945146581295      0.70471423869525     -0.63781871604277
  C   3.37967367455275      0.35945259507326     -0.35279209832354
  C   3.81129492015095     -0.92198132338563     -0.06791399003566
  N   3.18238736227187     -2.10447057825035      0.08345636166638
  N   4.07017106341406     -3.10430361819891      0.35030714519734
  N   5.24216455336218     -2.58271836545107      0.37370555833278
  C   5.15317960247224     -1.24335636498761      0.12520307671662
  C   6.18327898020329     -0.26690047476420      0.04440051069004
  C   7.49998327472188     -0.68815415628969      0.22067442475006
  C   8.71494315366745     -0.03985217549678      0.20425279752727
  C   8.91285464301962      1.36291850625908      0.01841981920475
  N   10.05339595269462      1.96461530647676     -0.00317799170201
  C   7.75581820703176      2.28502934208853     -0.16012303725685
  N   6.49560159494687      2.14872357423448     -0.26110793489930
  N   5.73208873650513      1.04462763035548     -0.22031502845827
  C   4.31450833483798      1.41879135821705     -0.45996550227408
  O   4.04923377089693      2.57168377814127     -0.72316733780590
  H   2.19882578190976     -2.29737361961705      0.00966995526057
  H   7.53901555207571     -1.75749080089545      0.39734436255361
  H   9.60738358608564     -0.63623008630399      0.35585249711353
  H   10.80041010272526      1.28002151408432      0.12093184708474
  H   8.08233568664059      3.31925372001523     -0.23283671929936
