20
Coordinates from ORCA-job 16029optt
  Br  0.74516105022080      0.21313444472737     -0.20940691354665
  C   2.59983328182971      0.10792023657816     -0.02664454351675
  C   3.43211081111614      1.19699897289546     -0.00198647488912
  N   3.22539234006155      2.52883945747784     -0.06217549508779
  N   4.40818597609372      3.22546741835865     -0.00536183354745
  N   5.36434106276733      2.33947547518513      0.09369157756409
  C   4.84837580174843      1.09651269582021      0.10150993962803
  C   5.44495847978175     -0.18096398621443      0.17844638876284
  Br  7.30129875084809     -0.39872426236162      0.31291634982290
  C   4.59886292122219     -1.29614652417840      0.14282455068783
  N   4.85680236987162     -2.61543407547340      0.18252739646769
  C   3.63820521741390     -3.16423587817232      0.10886672783884
  C   3.40934282355359     -4.64462020655670      0.07078199044022
  C   3.75849820309747     -5.33529451856427      1.31494414895192
  N   4.01194943356526     -5.92021796908407      2.26743515814479
  N   2.61343979093522     -2.33538929730620      0.02157062650285
  N   3.22816917406350     -1.13147518133394      0.04312679348599
  H   2.35269106560719      3.01779215227313     -0.14618520507052
  H   4.00700243267834     -5.08800980363955     -0.72809923673822
  H   2.35637901352412     -4.83162915043105     -0.13878194590146
