20
Coordinates from ORCA-job 16027optt
  Br  1.32019290725902      0.30355096896016     -0.04387494513596
  C   3.18349545739115      0.11466045383363     -0.04376327784682
  C   3.80836998327803     -1.14863715098484     -0.04220509491799
  N   3.25570776619101     -2.40666228795115     -0.04056668267053
  N   4.19288758976711     -3.28347433562669     -0.03932361971719
  N   5.37857785153951     -2.65305682599454     -0.04027829753259
  C   5.21526128267813     -1.30906146390413     -0.04207241360117
  C   6.08025665090827     -0.21891974507225     -0.04360414646919
  N   5.36582037982831      0.95557791951956     -0.04513297213076
  C   6.10714540440633      2.09759902370592     -0.04658736217110
  C   5.12865796054273      3.08928983026309     -0.04776928048162
  N   3.87552860031683      2.57377635051388     -0.04702021491941
  C   4.03322625386047      1.23196925185551     -0.04533571060416
  C   7.51193310199647      1.66844164919297     -0.04597348369238
  N   8.60548114729654      2.33432889666722     -0.04672302302952
  C   7.47186776342179      0.12811333767371     -0.04403596578120
  O   8.44240013435917     -0.63495748534885     -0.04294500131660
  H   6.23861911413656     -3.17416707787491     -0.03960085392945
  H   5.27671580719555      4.15864101012149     -0.04916062251728
  H   8.40185484362695      3.33398768045021     -0.04802703153506
