21
Coordinates from ORCA-job 16030optt
  Br  0.86006736045647     -0.69818333458399      0.15257684587119
  C   2.67006449100517     -0.14934030947912      0.22414192676885
  C   3.64642985937341     -0.92801473126422     -0.32955409679838
  N   3.57578862091660     -2.10764391603622     -1.00428789041976
  N   4.79818252480963     -2.55478144529873     -1.36631178297750
  N   5.66516502659458     -1.68441424092339     -0.94042884594862
  C   5.04185190301179     -0.65900482571671     -0.29879051384925
  C   5.65550384647213      0.46339092181149      0.31007514226485
  C   7.12854609603841      0.63152943792655      0.35468839675322
  N   8.04428360605864     -0.50410042130682      0.44062497621841
  C   8.01774331338830      0.27720145756220     -0.80119585821811
  C   9.18829667801110      1.05610288055214     -1.11438285297766
  C   10.15568279429750      1.71410758630466     -1.38434433962232
  C   4.90849611486355      1.47329258896240      0.94689255093124
  O   5.30243005855407      2.49286368085811      1.49509453576278
  S   3.05469226304500      1.33524054989759      1.02435181676003
  H   2.75235366140397     -2.63549798051404     -1.23206305544925
  H   7.43928384985247      1.48104672853371      0.94813446196522
  H   7.52251421422121     -1.35811684383064      0.25645090446636
  H   7.52564207844192     -0.18432124025272     -1.64846690319089
  H   11.01398163918400      2.29664345679776     -1.61320541831039
