23
Coordinates from ORCA-job 16032optt
  Br  1.04364633313137     -0.24505259526517     -0.32766320752464
  C   2.91644648383876     -0.18664624539812     -0.15272516040922
  C   3.69305611155293     -1.28965280020691     -0.03275735299881
  N   3.50553409272355     -2.63312647259263      0.02238471011301
  N   4.69827888914988     -3.29020420083801      0.15240823675168
  N   5.64169141559925     -2.37930150359215      0.18294981514758
  C   5.10280316691944     -1.15056302099889      0.07629474746092
  C   5.68827997234653      0.13103311348218      0.06253027631636
  C   7.15826552526455      0.33668141239097      0.20121824071375
  C   7.90929434916401      0.40094182864739     -1.11853737421545
  N   7.42739606240630      0.29175431544179     -2.27923484767987
  N   9.29951217545268      0.60337135231104     -1.04406388795885
  C   10.07327263431491      0.76902251387261      0.05679050315365
  O   11.27124163145274      0.94706775343752      0.01686395571048
  C   4.86286442895589      1.26851932414531     -0.05471821034745
  O   5.19532228072907      2.43767476297204     -0.07378513546207
  O   3.45210292053683      1.05416975449145     -0.16152377953440
  H   2.64813604206544     -3.15061876683404     -0.03573420262069
  H   7.58869309588058     -0.48039336892884      0.78904060377177
  H   7.34203225327213      1.27441869503791      0.73370654126304
  H   6.41967077681337      0.15501037844497     -2.20521718693033
  H   9.77090168917994      0.63950214720925     -1.93920150265997
  H   9.51755766924975      0.72939162277033      1.00197421793953
