21
Coordinates from ORCA-job 16031optt
  Br  0.88498089411964     -0.54747671747892     -0.13516434449617
  C   2.75196235119311     -0.26963747686670     -0.08732925655252
  C   3.62882696652369     -1.31499347328629     -0.07146058642114
  N   3.42929183697265     -2.65958900730256     -0.07329594021893
  N   4.60911786276050     -3.33544455754777     -0.05859502820930
  N   5.56014131592618     -2.46047892529669     -0.04653138534884
  C   5.04524535505020     -1.20127699358328     -0.05393381245907
  C   5.75902435837317      0.02013903210967     -0.05457609691980
  C   7.17223891124477      0.00946212864031     -0.05204958778253
  C   8.37712265780889     -0.01102665917890     -0.05054360082360
  C   5.09919022836086      1.29228723752723     -0.06642911825458
  S   3.29142581439156      1.38048146075832     -0.06632618035474
  N   5.72768441476732      2.41479362998134     -0.07233982822931
  C   5.00855051145786      3.64951688477172     -0.08762344286039
  C   5.97943132383501      4.80206119288202     -0.15421118332962
  O   5.65704784554748      5.95811543144603     -0.23891212545777
  H   2.55725302034897     -3.15700975337665     -0.08687516967690
  H   9.43860860156781     -0.02984259833857     -0.05038402543026
  H   4.38400182749632      3.80288939006681      0.80917369781501
  H   4.32026423829078      3.75125512746521     -0.94303728454759
  H   7.04258966396316      4.49677464660768     -0.11955570044194
