22
Coordinates from ORCA-job 16038optt
  Br  1.00921902192867      0.21303314639739     -0.34988727382599
  C   2.87518957826951      0.08294916669098     -0.15051688452476
  C   3.62774731905201      1.15022290798691      0.34615728457576
  N   3.18091052218392      2.33186401476564      0.86979647232581
  N   4.19579819942123      3.04561372986889      1.22972327940585
  N   5.30974588293105      2.35339432303796      0.94428854782668
  C   5.03608324448056      1.15549023323843      0.39196318823316
  C   5.89401862052612      0.12751807588167     -0.06833180703807
  N   7.31327756679051      0.14145015567350     -0.07050682711238
  C   8.20425998634273      0.96048212399243      0.47749369246606
  O   7.97699847123222      1.97515534653712      1.13998915542626
  C   9.68030182769379      0.60516416406618      0.25395243917020
  C   9.95862235993518     -0.61613868608672     -0.48732514771981
  C   10.12589008669485     -1.63018898228771     -1.10234286190247
  C   5.40205342397735     -1.04427647532449     -0.66462732344638
  O   6.10759997996079     -1.95659667236198     -1.11684248893165
  S   3.62447416390435     -1.32207593070698     -0.83445668316171
  H   6.24089821126604      2.67574927753973      1.18370010475003
  H   7.66403453823816     -0.68189728851477     -0.55546481976734
  H   10.13300363045227      0.55743911224976      1.24630390319344
  H   10.12950251772668      1.46421447790227     -0.24872629812924
  H   10.25437084699192     -2.53456622054623     -1.64633965181347
