25
Coordinates from ORCA-job 16035optt
  Br  1.15349782968458      0.39953386527436      0.21362284316457
  C   3.02220428195053      0.15510648095671      0.14481885797074
  C   3.66810705838657     -1.02581587634305      0.19055468955453
  N   3.33996977377608     -2.35397440667682      0.30961402615229
  N   4.50174608335306     -3.12395699667637      0.21275690117560
  N   5.52253656482430     -2.30857206286617      0.15260121445387
  C   5.10442240154814     -1.02772155610382      0.13434567283862
  C   5.79700000608156      0.17595423726733      0.05489197297151
  C   5.08174985084278      1.40491395737795      0.01025199131426
  N   5.51156684119020      2.61302997866318     -0.07608345242105
  O   3.68350205979917      1.33983606608408      0.06266689257649
  C   2.09860528577489     -2.96948917298702     -0.08226907780667
  C   2.03258304135406     -4.40128153170751      0.41814264032237
  O   0.76400646320335     -4.96502165328182      0.06293341947031
  C   0.32992834245489     -4.67080752682919     -1.18171807586602
  N   0.78705497085077     -3.83774096993791     -2.00489328034937
  C   1.90490760762217     -2.99321189912529     -1.59599733093548
  H   6.87494881799390      0.20685134003963      0.00709167796536
  H   6.52617691755447      2.58619728131398     -0.10956561612730
  H   1.27826382242171     -2.41483683092779      0.37676199314665
  H   2.10966782627651     -4.45422819286047      1.50161779036635
  H   2.82865560524720     -4.99718365331733     -0.02826197578632
  H   -0.53741285364586     -5.27669557976764     -1.43063726373718
  H   1.72634875262354     -1.98301904996432     -1.96834324984695
  H   2.82496264883136     -3.35686624760466     -2.06290326056718
