25
Coordinates from ORCA-job 16036optt
  Br  0.91971096415456     -0.23604961961189     -0.20637095886337
  C   2.79382153658403     -0.09760213756991     -0.13882405724134
  C   3.40007286910129      1.15479592655739      0.01812145096968
  N   2.86892808514883      2.39363754089571      0.16931974679259
  N   3.81970409081798      3.27290261619195      0.28540733832582
  N   5.00865735955199      2.60800503896174      0.20927144568684
  C   4.82186332811264      1.27220920436453      0.03560431620707
  C   5.62666286855742      0.16990652658912     -0.10730014458555
  N   4.97015417975948     -1.07586165159631     -0.17427832125958
  C   3.57738808631098     -1.28076428831500     -0.27830845348658
  N   3.08253825669846     -2.46479522464206     -0.47627692019402
  C   7.10744682366963      0.06699517078122     -0.02122137745225
  N   7.65167920606378     -0.55306442996039     -1.24945201502177
  C   8.94433725781757     -0.99153984599052     -1.31103329001284
  N   9.65144993707098     -1.25818339211258     -2.33405322206722
  C   7.76455536211112      1.35167831066270      0.26399602643517
  C   8.36722194841187      2.36322247206988      0.48925614017275
  H   5.87214829382801      3.10901840208605      0.30089876382102
  H   5.51690568747425     -1.82808770408944     -0.56496875837096
  H   3.82780910226391     -3.15648680738657     -0.51053861336325
  H   7.38219048573231     -0.62474071203920      0.79108753497427
  H   7.23580073083487     -0.19696034548203     -2.10104106476117
  H   9.38221189209520     -1.15024124116422     -0.32397116991844
  H   9.13851948753722     -1.06523151884313     -3.19534960110391
  H   8.89422216029139      3.26523770964299      0.68802520431703
