23
Coordinates from ORCA-job 16045optt
  Br  1.01506149894432      0.17411638386290      0.50995233158747
  C   2.79788798102675      0.03466810080523     -0.04743825803549
  C   3.65555414236274      1.05670215128992     -0.14028842457926
  N   4.96364696245344      0.79829364593516     -0.56906746870809
  N   5.77318368853188      1.91980225287157     -0.28661104349790
  N   4.97775919531540      2.88468983046255      0.08636046287622
  C   3.67015099282119      2.48489857539085      0.18917157580339
  N   2.62838242353964      3.18989758086369      0.53004495371699
  C   5.45960860716209     -0.48522778839235     -0.28854635503443
  N   6.85251891142395     -0.49823476134785     -0.14943529141719
  C   7.60395636000943     -1.58492917063623      0.04470647656973
  O   7.24711418350124     -2.73312149697852      0.11839837483183
  O   8.93431082673074     -1.20019309998498      0.15811321595696
  C   9.85544274454650     -2.18246077751600      0.35958899782009
  N   11.08537075563330     -1.95284903805783      0.44779445127891
  C   4.61001739128436     -1.50882712730752     -0.19882071725059
  N   3.21984189265443     -1.27557119387409     -0.43568287309112
  H   2.94893718071109      4.13943395360465      0.71610448723131
  H   7.26943546004220      0.42824472808483     -0.13156382811566
  H   9.43226024973593     -3.17759914962258      0.43954082843946
  H   11.27234921657561     -0.95465925330215      0.34540768378887
  H   4.92960312118242     -2.51801887235044     -0.01020621443803
  H   2.64460621381102     -1.98405547380080     -0.00252336573348
