19
Coordinates from ORCA-job 16049optt
  Br  1.63100817785081     -0.19029675379775     -1.98045045985495
  C   2.83037323328652     -0.20800886056785     -0.54409656851996
  C   3.35082227349356      0.88577176811803      0.06322446515769
  N   4.52980335887807      0.71058558627290      0.77769614577416
  N   4.98910647585502      1.92506807035969      1.28109696657068
  N   4.11807646789172      2.81340776186933      0.95364589183020
  C   3.08995304378586      2.30536045721957      0.18216192557145
  N   2.06961027756700      2.94775201249667     -0.31996943850073
  N   5.39097552737120     -0.25480156092230      0.48788117627060
  C   4.87659464783372     -1.30366254407549     -0.05893972969686
  C   5.71163046912627     -2.30224146239638     -0.63351188370521
  C   6.36987599241619     -3.16582057532551     -1.14266966276063
  N   3.45276187083047     -1.42982825635525     -0.16492459701965
  C   2.72502399990242     -2.46423032826070      0.32846541478436
  O   1.51960592103384     -2.53536533384810      0.33324053975476
  C   3.52434331540738     -3.58515172662079      0.88105678158157
  N   4.04957741281132     -4.46732604936986      1.39025647353561
  H   2.15269995034292      3.92383775420829     -0.03605506886173
  H   6.95515758431566     -3.93804995900449     -1.57910837191136
