17
Coordinates from ORCA-job 16058optt
  Br  1.12016459527405      0.07843774782816     -1.16208908890530
  C   2.69506024587018      0.01036640428557     -0.09661776118612
  C   3.40763051406643      1.13309456763643      0.18749034598370
  N   4.76906802353808      0.93422247345580      0.36422246267239
  N   5.41218192198440      2.17443821430278      0.50769783401229
  N   4.51113789553231      3.07308107541352      0.53716551305004
  C   3.22011895522985      2.56676247155817      0.30935798442402
  O   2.18470295000101      3.23172678849093      0.25867821638768
  N   5.40804243051701      0.01449702271654     -0.42228455998454
  N   4.80583484129726     -1.02079647806695     -0.70074978770269
  N   3.50632108070235     -1.13904643040280     -0.12118270135268
  C   3.06311664848409     -2.40659594575345      0.12105145977785
  N   1.84483354662945     -2.62941813399495      0.56418189382262
  S   1.68418899638731     -4.24781969766966      0.78247315818358
  C   3.27800038041778     -4.55189929094738      0.25776777637576
  N   3.91282013183271     -3.47384612685150     -0.06940487362569
  H   3.71577684223570     -5.53920466200122      0.20524212806709
