21
Coordinates from ORCA-job 16057optt
  Br  1.34605205308645     -0.03625314169487     -1.84678734964704
  C   2.60428842008557     -0.05862938591969     -0.32816266919377
  C   3.43839720875367      1.03898348119362     -0.16940080144855
  N   4.75425089631705      0.83775911342070      0.19250898216069
  N   5.41483858424542      1.97104195484541      0.33662659314981
  N   4.61093180026072      2.95116942188917      0.10800145828973
  C   3.32325809259767      2.47445610946970     -0.23345936786767
  O   2.35211704868798      3.17868013241607     -0.50692892303324
  N   5.37559426222096     -0.37155026384850      0.28030845828573
  C   4.58356479029325     -1.34722101419208      0.11980599503206
  O   5.12168063307487     -2.61236237471718      0.30966538626504
  C   5.44081260373419     -3.33174677362266     -0.78288142603554
  O   5.27548871539968     -3.01067854818803     -1.91462449989855
  N   3.24296091557404     -1.32725579559993     -0.16335042316424
  C   2.41851842021519     -2.45036993869348      0.18867852949047
  C   2.33176387509499     -2.73150181387645      1.67143740727208
  O   2.94762886519975     -2.15061691554098      2.51527190068577
  H   5.87461314622147     -4.28331702698281     -0.45134453861585
  H   2.75089413301101     -3.37177023556554     -0.30366383359150
  H   1.41161118349529     -2.25628081948463     -0.18789440755508
  H   1.64473435243070     -3.56353616530782      1.93619352941965
