24
Coordinates from ORCA-job 16051optt
  Br  1.59218862179841     -0.29120020906984     -1.63843560373464
  C   2.78417312603481     -0.17023808342484     -0.16898863892585
  C   3.48184027033229      0.97241483497359      0.10679406397119
  N   4.69401145419368      0.90777637349297      0.78127552828037
  N   5.23995961588629      2.16685313809668      0.92174283677347
  N   4.40343776446317      3.00888498942914      0.44550511162896
  C   3.29375782938591      2.38551337331009     -0.11755294009426
  N   2.28114201836249      2.97008065212235     -0.70454001857200
  N   5.57365795808286     -0.12537472838686      0.67356301196798
  C   5.10805203237976     -1.29560872555132      0.51870732998579
  S   3.36611747340807     -1.66296722260580      0.55085193195062
  C   6.04038218968307     -2.45950008725990      0.27482803004753
  C   7.52372903097938     -2.15064876894374      0.55289690879788
  C   8.12268967611623     -1.76412639943208     -0.81098898704397
  C   7.16981869462640     -2.40186424877032     -1.78875923221212
  C   6.04374424087628     -2.79156312316145     -1.20618093086509
  H   2.44928522184330      3.97500647177546     -0.66329750669864
  H   5.68023487205642     -3.30237457741218      0.87323829921913
  H   8.00290939797406     -3.06370873391480      0.91163436804478
  H   7.64346976309946     -1.37202159809998      1.30231053093559
  H   9.15135128068468     -2.11129349419549     -0.92881208024142
  H   8.12427379214039     -0.67873352366599     -0.94631646554635
  H   7.36694851695147     -2.46703306908829     -2.85151226110669
  H   5.17782515864076     -3.20827324021735     -1.70296328656225
