18
Coordinates from ORCA-job 16061optt
  Br  1.04039374952907      0.01408763635911     -0.21787243690780
  C   2.91308594135895     -0.13781319000765     -0.11780240717843
  C   3.57235580185920     -1.29831716122717     -0.08312805021881
  N   2.87109928638651     -2.52309216852584     -0.08977485074270
  N   3.48732826249179     -3.60830781606032     -0.06849838518534
  N   4.82692950859761     -3.61348018495529     -0.04443982785405
  C   5.62694456924814     -2.47744724325745      0.00545361754042
  C   5.02750806485648     -1.26123716066432     -0.03107455643402
  C   5.71849735160201     -0.00866237477669     -0.02292531606215
  C   4.91666913097932      1.19459900829815      0.10100974361832
  O   5.27447480351107      2.31800813700318      0.32129032537849
  O   3.51880823045206      1.06192152641495     -0.06563035396041
  C   7.13914456447988      0.03664837223355     -0.09484690446857
  Br  8.07416114753106      1.66627764234652     -0.38977671290996
  C   8.03346122320509     -1.05430638118912     -0.07009552148705
  O   9.24797625447646     -1.07435785947851     -0.14691710390950
  S   7.33026633342199     -2.75040728381859      0.12607304553685
  H   5.22889577601318     -4.53311349869448      0.00295569524473
