22
Coordinates from ORCA-job 16065optt
  Br  1.58072671065362      0.67042256717612     -0.77112725449793
  C   3.32844347071366      0.14422137394749     -0.32172128474760
  C   3.68446323599894     -1.16262235004192     -0.21107575381049
  N   2.80742281377994     -2.21808600449655     -0.49854790842077
  N   3.20536839226984     -3.41639577021224     -0.44075898454120
  N   4.43181079978100     -3.70905428681307     -0.02354419253319
  C   5.37115867548069     -2.79771933281536      0.39659388041895
  C   6.61644105349102     -3.15221427731021      1.00222870605770
  C   7.67794202800186     -3.14970189028323     -0.05071514088925
  N   8.33435647437488     -4.13634968016897     -0.55089365229782
  C   7.95394961302613     -1.80420582519156     -0.58191176579581
  N   7.28913348617321     -0.67771040086535     -0.39618327689710
  C   6.04297987576605     -0.51291092064387     -0.01015089391186
  O   5.63580074151678      0.80262935908401      0.02578377103000
  C   4.31335541042898      1.18921209707310     -0.07577199336037
  N   4.03058577961844      2.42261841184391      0.01871529233195
  C   5.02915571176195     -1.48430656737553      0.14087369502639
  H   4.61332497426133     -4.69452814618686      0.10253478982367
  H   6.85659281877520     -2.32043514690757      1.67185190407063
  H   8.04863401876641     -4.98088356135021     -0.05589203643278
  H   8.84217102181451     -1.72426723939542     -1.20351342136144
  H   4.88918289354551      2.95128759093332      0.15722552073831
