24
Coordinates from ORCA-job 16068optt
  Br  1.10936715701544      0.17947541241741     -0.23589479595667
  C   2.97347066376576      0.23930838289149     -0.05447935208740
  C   3.65860884928488      1.43156181275864      0.11224472007204
  N   3.29830171485248      2.73545051996181      0.17382693615627
  N   4.35419569028991      3.47936379174371      0.31161698805954
  N   5.45618884346171      2.64627794187967      0.39029894520917
  C   6.78503881736497      3.16850578971107      0.29454887013101
  C   6.85475371707443      4.63275995224786      0.72301284723696
  O   8.22243878512655      4.82366530852136      1.11023726353576
  C   8.78471466504008      3.63468771538715      1.46510898251226
  N   9.96099067417038      3.51795182270059      1.89690997083624
  C   7.78839332262290      2.52614118679855      1.25167002479385
  C   5.07803299613588      1.34966004438292      0.22027652454184
  N   5.85196904844745      0.31053556695063      0.15884587389000
  O   5.11359095129963     -0.88939320705507     -0.00032679997618
  C   3.73196887270737     -0.97591120132983     -0.11367402691709
  N   3.22852711554355     -2.14219407899750     -0.26527266906743
  H   7.15546110126465      3.06773858552793     -0.73296824200442
  H   6.19601656442908      4.81257026694730      1.57389106490132
  H   6.62076532110502      5.33815690973285     -0.06885249659437
  H   10.40283228938597      4.43484483816157      1.95654289956601
  H   7.29432973532588      2.29575804198791      2.19916851807937
  H   8.24884672550838      1.61681195094722      0.87936701987120
  H   3.98119637877754     -2.82672735427524     -0.28009906678926
