22
Coordinates from ORCA-job 16077optt
  Br  1.23079252511256      0.29688130448658      1.09968620787205
  C   2.94642085948912      0.09737794223018      0.36295677769204
  C   3.49393708917032     -1.12297452542396      0.10030927867122
  N   2.83578381477787     -2.36636704578650      0.18212085160875
  N   3.54830454576345     -3.53290318969499      0.64429596797321
  N   4.79755272070263     -3.54429481320088      0.38259514194164
  C   5.43835937074036     -2.50641749639970     -0.16786250493353
  C   4.86932086230789     -1.23221252686088     -0.25742482578560
  N   5.62138838621130     -0.13633542630176     -0.52415880684329
  C   5.06657261364442      1.02964776880951     -0.37796976807004
  C   3.72337296666735      1.29415588437038      0.11089952215411
  N   3.24661322930209      2.48725078508935      0.31649416552846
  C   1.63615638531999     -2.61517242462112     -0.42189999916631
  O   1.03511658427220     -1.82978585912641     -1.11784405177726
  C   1.07285607072177     -4.02335161254848     -0.19674561222708
  C   0.70715041003392     -4.29460613950720      1.19035567464356
  N   0.35935669723735     -4.52786084509650      2.25699745532863
  H   6.48827541178256     -2.64807383936912     -0.38314258744170
  H   5.67331717637509      1.90241265186004     -0.61493500381492
  H   3.96070123427713      3.17432447782464      0.07607687215882
  H   1.79930771539843     -4.77255787953486     -0.50782036462020
  H   0.17734333069214     -4.08513719119829     -0.81198439089257
