19
Coordinates from ORCA-job 16071optt
  Br  1.03637992196237      0.27244876793031      0.13623175168389
  C   2.95917138274339      0.14632237562178      0.06441658370485
  C   3.54092051169269     -1.13392315367453      0.07204664360231
  N   2.77737256069669     -2.28133454199734      0.10031489374152
  N   3.26408967225667     -3.54437064512892      0.26616071954185
  N   4.53138592659731     -3.67761966907005      0.11998069202367
  C   5.34464731057697     -2.64895329546416     -0.07414139843683
  Br  7.10531952045764     -3.13376986350789     -0.51182516573880
  C   4.94069204140730     -1.27289771100847      0.01275860478840
  C   5.70518406315259     -0.07979536162090      0.03601126468396
  C   7.05394636543611      0.35691596307587      0.09031938142215
  N   7.13014206041406      1.71867074214944      0.05273030872337
  C   5.89970668911267      2.20144672751959     -0.02255527706763
  C   4.95714002825787      1.15966984886764     -0.01387767652039
  N   3.61674679919936      1.25640949111014     -0.00440511649015
  C   8.28154014794656     -0.32899746730476      0.29843705103321
  N   9.30868275946928     -0.81100447537072      0.49738285159989
  H   1.78277460926673     -2.20846620596601      0.23982781172284
  H   5.69515762935367      3.26124847383900     -0.05881392401813
