19
Coordinates from ORCA-job 16074optt
  Br  1.07568160607207      0.02047163056704     -0.07858069393471
  C   2.95808966003779      0.06845238675860     -0.03926387134508
  C   3.65281473827654      1.23666269548471     -0.02529656127669
  N   2.95741654935450      2.45921314703821     -0.03195303081929
  N   3.56451298735149      3.56765874823544     -0.02023740616779
  N   4.88927364155780      3.58700711986562     -0.00220019603040
  C   5.70003127341368      2.48311014763116      0.00528172481786
  C   5.11288142807079      1.23971428387285     -0.00511284529743
  C   5.82290729197923      0.01364362648662      0.00055551781533
  C   7.24197719585381      0.08211093096541      0.01482729194419
  N   8.37973456385394      0.26582895555514      0.02647212197686
  C   5.09282178912687     -1.17992327454371     -0.00804362365064
  C   5.45857243016138     -2.56752335752700     -0.00001498308594
  O   6.52513928081708     -3.14343035922298      0.01289893078165
  O   4.26140879781129     -3.25582302423122     -0.01063063767899
  N   3.16243562717525     -2.38113440282073     -0.02821728944353
  C   3.67205792920830     -1.18307141924180     -0.02585334846555
  H   5.27151013841991      4.51615290875605      0.00604682945645
  H   6.76673307145822      2.64887925637059      0.01932207040370
