21
Coordinates from ORCA-job 16082optt
  Br  1.05131448941692     -0.04342802193579      0.05376053442077
  C   2.94249803881558      0.03683301739541      0.06926571441647
  C   3.66659424197642     -1.12106892727600      0.07653551961237
  N   3.10677813794573     -2.36513080801679      0.07629575211944
  N   3.76898403775351     -3.55585801196441      0.08242513241625
  N   5.06311868373607     -3.49785631785100      0.08740855774548
  C   5.73888392719014     -2.35560406385227      0.08814968221044
  C   7.24480646646628     -2.47677750545757      0.09322249804649
  C   7.75044909696469     -3.84574671629366      0.09460876404632
  C   8.22242589376239     -4.94599645133141      0.09689100972545
  C   5.09504346245028     -1.08011089769928      0.08429502726592
  C   5.63293003584953      0.22041806937260      0.08541571647090
  N   4.95652110220869      1.35459979813115      0.08141040244498
  C   3.56864287213264      1.34841863018580      0.07406696292284
  O   2.92765282569520      2.39129902362019      0.07167249474762
  C   7.07055660375741      0.43492166820078      0.09110963431206
  N   8.20040873886793      0.63938496959827      0.09520030940262
  H   2.10310818362581     -2.45311265970535      0.07173704272562
  H   7.65334769095243     -1.95266321638188      0.96184313704060
  H   7.65903821326982     -1.95249849184948     -0.77257274552643
  H   8.61289725716248     -5.93402308688931      0.09525885343380
