23
Coordinates from ORCA-job 16084optt
  Br  1.48686333285298      2.24527088413966     -0.20592311379949
  C   3.37524441971487      2.54562112674562      0.00203125267479
  C   3.86345107668056      3.78540271733315     -0.24659399639869
  N   3.14734499647476      4.87068461721297     -0.78788674922245
  N   2.88271341422450      6.07461268274052     -0.13026345291147
  N   3.80120798058286      6.68668843665584      0.43751540026847
  C   5.12215800396125      6.27806714696679      0.54773950847790
  C   5.76363435335403      5.09969661290181      0.31831172388850
  N   5.24972631706869      3.91454468920065     -0.07787070768980
  C   6.04957150233935      2.75201979046945     -0.24125179954081
  C   7.28347158890306      2.86717538957132     -0.80052847466592
  N   8.34466096247259      2.01960358247500     -0.84157329030673
  C   8.35676105427045      0.83371783723003     -0.24421722157474
  N   7.45977198432140      0.09082469548941      0.38441128520709
  C   6.14924805681392      0.36784536676310      0.53585342860833
  C   5.40554766500230      1.51289120427992      0.22429368729422
  N   4.07906351376748      1.46242819389143      0.35165198286595
  H   2.25487279691975      4.55386780201836     -1.13869626891150
  H   5.74520352625777      7.06257999379805      0.95368268996798
  H   6.82524259060018      5.06458260868753      0.52812384013259
  H   7.48559545154364      3.82954845964719     -1.26862364368881
  H   9.33288926219718      0.35135551408977     -0.30170371171981
  H   5.55475614967631     -0.43602935230767      0.95951763104439
