22
Coordinates from ORCA-job 16093optt
  Br  1.10243575830899      0.13887460865262     -0.04463377792358
  C   2.96785545984225      0.16953337684926      0.07634054799571
  C   3.67743417823897      1.32991420327959     -0.10768989952489
  N   3.09746756797375      2.51038037236139     -0.35650492696968
  N   3.75751614029270      3.63046566589249     -0.36316533222782
  N   5.11741943605158      3.51428356419621     -0.00145726565401
  C   5.87900137559075      2.39766324317091      0.03260948541324
  N   7.16026800399526      2.33071875188400      0.18774492076688
  N   5.12702808094913      1.23858337726020     -0.08891661150772
  C   5.63630620787658     -0.02131111378341     -0.09008265623857
  C   4.85283235048982     -1.13025425750232      0.02909945053232
  O   3.49146034784307     -1.10833032126528      0.16752666526966
  C   5.67277299858590     -2.28841976012360     -0.04948344895152
  N   5.46064669296701     -3.55098076447856     -0.01137867383580
  C   7.08346599550212     -1.73318030297738     -0.20007339768951
  N   8.17228209476369     -2.37260473707019     -0.21998842076017
  N   6.96500423829341     -0.35344101171662     -0.29987745366288
  H   5.59722423162624      4.39623582092944     -0.03485911406757
  H   7.55933371394218      3.26175045090180      0.23882100962074
  H   4.46329093454336     -3.73218486910184      0.09342418132389
  H   7.93729021530973     -3.36356523501858     -0.13399840363626
  H   7.68966397701340      0.32586893765984     -0.10945687827248
