21
Coordinates from ORCA-job 16095optt
  Br  0.79505180951509      0.20956202667793      0.36856791089746
  C   2.63971516083323     -0.19955345126423      0.19006746368745
  C   3.09329648336919     -1.50346427468173      0.17467346693889
  N   2.20711136653621     -2.58869550799515      0.34956633281819
  N   2.15760845177627     -3.52608163311774     -0.71910903789491
  N   3.15188152918624     -4.20653579072281     -0.90981027093826
  C   4.28645830031465     -4.14124170552634      0.02170615315637
  N   4.60125179199931     -5.24000316018828      0.58959422694415
  N   5.02443123923267     -3.01304053053430      0.09750314325207
  C   4.50574146585247     -1.79203703376259      0.04510656762712
  C   5.41351481686328     -0.69641341010160     -0.07460675189829
  C   4.93526597799215      0.57393199348461     -0.04612719482472
  N   5.52319995601689      1.80603247355979     -0.12610235507424
  C   4.52750480010901      2.80709686815223     -0.02681724881643
  O   4.78371934353354      3.99512286139548     -0.06078952288487
  N   3.29870441266040      2.19071430464348      0.10623999648575
  C   3.53274112045639      0.88324722829226      0.09480561632839
  H   1.25969778215154     -2.24683830978454      0.44886364197677
  H   3.96607480446009     -5.97009482324805      0.27134923768043
  H   6.46443396587918     -0.93302779208654     -0.16755580556457
  H   6.50159542126217      2.01331966680812     -0.20912556989677
