19
Coordinates from ORCA-job 16103optt
  Br  0.85915783641070      1.43498176163193      0.05383568188514
  C   2.54567699159584      0.55663431333078      0.09142995040620
  C   2.56486279243513     -0.82435481926430      0.26627041527577
  N   1.41154122454849     -1.60537446557498      0.33516857560680
  N   1.36728662756495     -2.34449445155911     -0.95612880289999
  N   2.04591762377370     -3.36456762484087     -1.00224205177805
  C   2.88739577349156     -3.83093109874939      0.05983219670001
  O   2.89668619860274     -5.02517264812697      0.32102972851933
  C   3.87148276881966     -2.90566204734879      0.65730279319606
  O   4.77517110055603     -3.25631919109489      1.37762982978216
  N   3.77738685571323     -1.47686220149909      0.29949226597205
  C   4.90464840389704     -0.73146943920110      0.14762805702716
  N   6.17842157434203     -1.08382108017722      0.08288079550745
  C   6.77327824877780      0.12097329584163     -0.12689741366219
  N   6.01279756387014      1.20870059253660     -0.20127828224016
  C   4.77072294190400      0.69477515447182     -0.03493533430961
  N   3.60877358170105      1.32255577091745     -0.05085210327766
  H   1.50636882962757     -2.30804732566448      1.07572740525153
  H   7.84842306236829      0.17945550437100     -0.23389370696199
