19
Coordinates from ORCA-job 16108optt
  Br  1.25137909802480      0.05180981167394     -1.65846057721216
  C   2.54341907672297      0.07200844756100     -0.08485268593826
  C   3.26293997236838      1.24073161896853      0.09697722227493
  N   4.67928096536785      1.10677116964389      0.15809949791138
  N   5.31613857842791      0.11303003252036     -0.54304890158536
  N   4.70270122627854     -0.94257839180077     -0.69868310647146
  N   3.43126842261867     -1.02845450293924     -0.09380336386942
  C   2.95761193553844     -2.31265572845621      0.01480974523976
  N   1.72251222461618     -2.59999364352834      0.39407118994342
  N   1.77077873240417     -3.92016080645823      0.38964207590184
  N   2.91844437986641     -4.43102096168752      0.04052335728131
  N   3.70320718695103     -3.42694121163176     -0.20340807197673
  C   5.26766310507689      2.36572769531783      0.20995227398884
  O   6.42800923100318      2.64877767701876      0.17991210384104
  O   4.25803512299155      3.25765522310302      0.32230985170975
  C   2.98732801888500      2.62157307289321      0.20288974758017
  N   1.90362704169972      3.28779053120349      0.22840307702185
  H   0.97520021226418     -4.49058750356998      0.62216964501869
  H   2.10845546889408      4.27851747016803      0.32849691934042
