23
Coordinates from ORCA-job 16104optt
  Br  1.20069370634273      0.31669048409256      0.37813643644228
  C   3.06108728060005      0.03759714154471      0.33054702245998
  C   3.54324055444770     -1.23483215095014      0.02411195483578
  N   2.73932279405434     -2.26249160902683     -0.19644703146098
  N   3.16365956167708     -3.45493233902521     -0.52552316832670
  N   4.55092740622367     -3.53330851690216     -0.68867462980843
  C   5.49366850164616     -2.59964516272687     -0.48425012456696
  O   6.67597927686157     -2.80762660483921     -0.68352032608412
  N   4.97134572485593     -1.36818292042143     -0.02778898953957
  C   5.77064803444195     -0.29040318185269      0.33558093355966
  C   7.27187759215365     -0.45555202079250      0.44230940909392
  C   7.92382734264594      0.84878492498459      0.89273812857148
  C   7.45071965132087      1.28127420409394      2.26146253452601
  O   7.61534026902256      0.60297763604111      3.24307448205488
  N   5.29893851954039      0.85716873016372      0.63664484724323
  C   3.90817477260683      1.14940122761993      0.60076208430563
  O   3.54896626155531      2.29679430371076      0.81175501695801
  H   4.88471568344883     -4.42221794180302     -1.02061680051301
  H   7.68383957990837     -0.78192826650233     -0.50896941174919
  H   7.49347081991930     -1.25376946852698      1.15236384081669
  H   7.72514907866439      1.64111796451252      0.17283188243449
  H   9.00288786046036      0.68427112523672      0.96054841452461
  H   6.96351972760181      2.26681244136882      2.33392349422230
