20
Coordinates from ORCA-job 16102opt
  Br  1.02236625676006     -0.39010833186569      0.39974534595583
  C   2.87901764785102     -0.23480211400514      0.23835132276123
  C   3.68949981661875     -1.33117190887945      0.07944048954985
  N   3.39773171195942     -2.67892959241575     -0.02146858735288
  N   4.50171823142162     -3.31389724701352     -0.16646670590948
  N   5.54105672266351     -2.48931931581262     -0.15884520324243
  C   6.92466863745473     -2.87904313403018     -0.35519000342164
  O   7.62431811220680     -2.04037017798412     -0.89997908097400
  C   7.31776299623828     -4.19781914671176      0.11083772726848
  O   8.33436681663492     -4.76291109572925     -0.36702427929033
  C   6.65629987186232     -4.83259584515922      1.27117983975702
  O   5.86189970061111     -4.35171885570256      2.05480194055818
  C   5.09242937406273     -1.19666237846795     -0.03670241622902
  C   5.68390054811387      0.02593809533144     -0.02365807067085
  N   4.85655007358213      1.08406489410594      0.13414404074114
  C   3.45483629291617      1.08105681207152      0.27412591235968
  O   2.87426570926650      2.15152777905203      0.39937881685939
  H   7.05868393874537     -5.85385577900801      1.42453515218598
  H   6.74222373101853      0.19562598977575     -0.14562982487360
  H   5.24140381001174      2.01799135244865      0.14442358396741
