24
Coordinates from ORCA-job 16101optt
  Br  1.10249007485000     -0.13584371464906      0.77529339168723
  C   3.11466144922424     -0.06767573812490      1.09120904742907
  C   3.81011359105076      1.10180202938777      0.70428709111471
  N   3.54099312662358      2.42141696607394      0.87647455736786
  N   4.49425486551191      3.13001727662661      0.42050790451177
  N   5.46970026130214      2.26457616924987     -0.08520764697710
  C   6.66144154543242      2.78520847609713     -0.57897514150076
  O   7.55258416194426      2.09119888194041     -0.98799531301477
  C   6.75188437514421      4.29962449980006     -0.51897363496389
  C   8.07811635965244      4.80044927610179     -1.08593783310952
  C   8.13992342159363      4.74717695772916     -2.54445232247865
  C   8.17347637387456      4.72360884306507     -3.74169793797174
  C   5.05625357631908      0.95080073357511      0.06984772055904
  N   5.67564511801595     -0.14649580713051     -0.28962786641501
  C   5.00579054109492     -1.30122167234430      0.03540400770508
  N   5.40815326522907     -2.49516339763460     -0.21453764953820
  N   3.77996432890655     -1.20541301384397      0.73395384760161
  H   6.64255077365008      4.59858598919008      0.52469833781185
  H   5.89938442403482      4.73306331585202     -1.04112120908270
  H   8.89457772102535      4.20116351268016     -0.67925074300452
  H   8.23431265636160      5.83420579252578     -0.77115207132926
  H   8.20460262130234      4.67653227242931     -4.80293546736610
  H   6.30013338517113     -2.42251760743578     -0.69486366878365
  H   3.38699198268468     -2.10210004116120      0.97605259974767
