19
Coordinates from ORCA-job 16112optt
  Br  1.28087918417121      0.91744277762127      0.14388976992030
  C   2.97115393567833      0.14651267576314     -0.21110746015079
  C   3.39352617660268     -1.13603444103663     -0.02076829969008
  N   4.81746803141199     -1.18684288495724     -0.01159645246546
  N   5.45855461448789     -0.17054796325492      0.71886143922294
  N   5.04607506095835      0.96890077617613      0.55944624268766
  N   4.01039859173586      1.09300869820996     -0.38067859338536
  C   5.60651104883466     -2.37904928201123     -0.05653563188689
  N   6.87719025710730     -2.34700673339072     -0.08493160848454
  C   4.84176408280174     -3.61589403950926     -0.03458252304326
  N   5.42758329327327     -4.80875770966146     -0.10798058754960
  C   4.55328293190703     -5.82670968650265     -0.01455050830618
  O   4.73458695166986     -7.02071605659228     -0.03913997338430
  S   2.81308540951977     -5.17002288006975      0.18125143453980
  C   3.43063092852993     -3.56045279722743      0.11317117803182
  C   2.72044282235246     -2.37817738589880      0.14152665159083
  Br  0.83442881503524     -2.48288024404184      0.22982793232020
  H   3.68330305514334      2.04715943534389     -0.35439347606003
  H   7.21113480877903     -1.38593225896015     -0.07970953390705
