22
Coordinates from ORCA-job 16111optt
  Br  2.57412818016556     -1.18560208842308     -1.42360239880811
  C   3.27404204873783     -0.08883555887739     -0.04740745843705
  C   4.15847591563591      0.91506221255350     -0.18636933972140
  N   4.70927497388432      1.25038832938933      1.07034229212071
  N   5.12109204302790      0.13097323570808      1.83936915017162
  N   4.32391072076211     -0.78336578032136      1.93167576766642
  N   3.08286947816346     -0.55631475134531      1.26383462611540
  C   5.64394930022583      2.34929407676659      1.32272735318908
  N   5.37148069512615      3.17676316219679      2.23981333134342
  C   6.86958420387074      2.33812699472688      0.54741377605409
  N   8.05334807160252      2.76542902741226      1.00250415848610
  C   8.85284607692014      2.63725902399527     -0.08175469559823
  N   8.28939050705539      2.20372636143611     -1.19915278920662
  C   6.98465825009395      1.98493055530378     -0.83110869773254
  C   5.97631710410099      1.71040653514367     -1.75566429055603
  C   4.59907317323397      1.47069982083783     -1.50340996370644
  N   3.73424934084132      1.65330960882688     -2.46104760782612
  H   2.55941498935984     -1.41863124921402      1.30909057148383
  H   4.47328422809056      2.93039343369522      2.65509329354938
  H   9.90669370388943      2.87936068477835     -0.02771697217539
  H   6.23409433091526      1.79775246469259     -2.80414920279083
  H   2.79082266429670      1.45787390071803     -2.13548090362129
