20
Coordinates from ORCA-job 16124optt
  Br  0.99754157996919      0.13351175533658     -0.06394159554591
  C   2.87341296839810     -0.06874908707123     -0.06512912492216
  C   3.61094378444360      1.06126447297554     -0.06572632776653
  N   3.34123716953308      2.40145338402515     -0.06588667034774
  N   4.50733324614523      3.11672349047190     -0.06633916802038
  N   5.46811908077792      2.30708169656013     -0.06665556186337
  N   4.98426814166228      1.05279342935876     -0.06637772199086
  C   5.72510678366365     -0.15224260932871     -0.06641883868290
  N   7.04560975311785     -0.02703255804450     -0.06681676197278
  C   7.68093921975493     -1.20974764217211     -0.06671878341069
  N   7.17624634214317     -2.41091000335827     -0.06646302609417
  C   5.79324935851806     -2.56126908134414     -0.06628321222308
  N   5.21742313438715     -3.71074969283125     -0.06631357106563
  C   4.98404280991938     -1.33164044984262     -0.06598616361336
  C   3.54513700443399     -1.34185427229888     -0.06528709409926
  C   2.73188618309431     -2.49403907429292     -0.06459749016091
  N   1.91286343812285     -3.31095005391886     -0.06360824489857
  H   2.44578336441208      2.85349753176927     -0.06508036585054
  H   8.76733267254751     -1.14255930528547     -0.06689523071243
  H   5.94552396495563     -4.42258193070837     -0.06647504675874
