23
Coordinates from ORCA-job 16129optt
  Br  1.06534749787482      0.00441950695236      0.39362334187088
  C   2.92360518598984      0.01687087915805      0.15790019484971
  C   3.59257928322739     -1.13923995147848      0.13445851973702
  N   3.26913534559728     -2.46390802918914      0.23717998483960
  N   4.38216559203023     -3.23548700203337      0.11683662196100
  N   5.36945091964436     -2.49145054213929     -0.06142210746520
  N   4.94789800034866     -1.20249962315293     -0.04811054686788
  C   5.77561410204180     -0.07315758942289     -0.26245619627006
  N   7.00595323812909     -0.18022107729848     -0.54891316135830
  N   5.08367310037443      1.10947373279997     -0.14479092735263
  C   5.88085332454248      2.34956017820110     -0.17219667816898
  C   5.97883355198116      2.98781827666809      1.21205649732320
  O   6.52032598948257      2.34377181276736      2.14473797266614
  C   5.44919412782347      4.30476126274678      1.34309591364325
  O   4.81693304703872      4.92739531535927      0.44902043048008
  C   3.67667433012722      1.26758700818682      0.04409899753857
  N   3.07029784522774      2.37381041267970      0.10970335706303
  H   2.36896765081360     -2.86707625210998      0.42560838777395
  H   7.28392754441914     -1.15549248870711     -0.56238156555104
  H   5.43398750379886      3.03951944336084     -0.88677304739038
  H   6.87419591745739      2.06676085851375     -0.50635229495781
  H   5.61412266562136      4.75853734354770      2.33532764436514
  H   3.65526423640808      3.21024652458980      0.06374866127069
