22
Coordinates from ORCA-job 16125optt
  Br  1.24772305584289     -0.64571324086949     -0.95995704972978
  C   3.00648063879486     -0.25730294925169     -0.41003275756569
  C   3.42417472231112      0.99555368261698     -0.12246029872182
  N   4.72871681892171      1.19496203434503      0.27088672189087
  N   4.96194145845639      2.47024925824485      0.53921548155978
  N   3.90422171393556      3.15284346554114      0.34219868055251
  N   2.93269061306709      2.27171248343569     -0.11843394523280
  C   1.56974254614624      2.72201928276848     -0.09635729890303
  C   1.07443535083302      2.99692491231570      1.34160584076242
  C   1.10167026419075      1.75825438701072      2.10887375273199
  C   1.16502969928878      0.69335226492402      2.65071146712213
  C   1.40980266415545      3.94171016809467     -0.90991469014394
  N   1.20599526774563      4.89281063284813     -1.51443407402588
  N   5.67827269176592      0.22415485573003      0.41652045876964
  N   5.27010475146075     -1.01106392216560      0.13469103387482
  C   3.99352384801693     -1.33277460666418     -0.27270627668416
  N   3.64192438818207     -2.54946901241077     -0.53541096516761
  H   0.95922592175893      1.93955184857237     -0.54670576981764
  H   0.06443260301308      3.40835594018507      1.30025171999721
  H   1.73207639914919      3.74365951245649      1.78984818997868
  H   1.24134420464630     -0.26556284361120      3.10524718271617
  H   4.46247037831730     -3.13422815411645     -0.38363740396385
