22
Coordinates from ORCA-job 16138optt
  Br  0.70513156166479      1.04368321427932     -0.33559109701416
  C   2.53458640004922      0.60151156569561     -0.18868734360768
  C   2.90379319857685     -0.70149383390997     -0.17736963993444
  N   2.15106644032587     -1.86292491697555     -0.47757626276899
  N   2.26833467426555     -2.66043287916601      0.47369144566125
  N   2.66076922777226     -3.88955400315200     -0.08552531409923
  N   4.04704740475607     -3.74780824899139     -0.34282356486063
  C   4.63719707064030     -2.59683887357815     -0.31356051948883
  C   4.26662432548621     -1.18330368290871     -0.13129677796208
  C   5.22400497335036     -0.18326392222703     -0.08983381348680
  N   6.59246757873626     -0.20020882653976     -0.05864531563830
  C   7.06287781427827      1.13037473531862      0.03531076305870
  N   8.29473538307933      1.49845822989053      0.11666312279436
  N   5.97573378143087      1.97100878398231      0.02206112671039
  C   4.89570843701715      1.20092473352296     -0.04637652272827
  C   3.51212852564066      1.67496714239999     -0.09613978971714
  N   3.18092017300121      2.92221073799864     -0.07292418265876
  H   2.59495319918700     -4.60943252290391      0.62682379052542
  H   5.69861250893294     -2.72274944187730     -0.52414568849798
  H   7.17677948781834     -1.01029686417742      0.03891331070989
  H   8.90453760998337      0.68426512558897      0.09643360627586
  H   4.03999022400704      3.47090374773025     -0.01240133327258
