20
Coordinates from ORCA-job 16131optt
  Br  1.10309899633503     -0.72032051276590     -0.68785475258139
  C   2.91242086719071     -0.37853738805356     -0.31590363202257
  C   3.40356820331302      0.88203842972219     -0.12027651544118
  N   2.86689259196117      2.11344453779136     -0.10139550869226
  N   3.86548026378154      3.11489812878394      0.19105789246425
  N   5.04445686815198      2.47898129983235      0.15290538947802
  N   4.74226117614775      1.09991284638605      0.08937815874942
  C   5.67123613245874      0.11252846800570      0.12692551441124
  O   6.84951913147706      0.25672938255698      0.29618256210544
  O   5.15973851178706     -1.15064605676359     -0.05402708270593
  C   3.82954105916059     -1.47968954647805     -0.28741456038129
  N   3.52690720799535     -2.70160561226981     -0.45440545509298
  C   1.54253945804059      2.46503277880340     -0.03918202308713
  C   0.75455419458084      3.23983819664115     -0.81276372162082
  N   -0.49672583410659      3.33486156674188     -0.22966209695796
  C   -0.39781486764262      2.62867450478515      0.84268046655686
  O   0.80748547645599      2.08497216620834      1.04930226468540
  H   4.36822138447622     -3.26808135569459     -0.38266096490014
  H   1.00983635583066      3.72479825499135     -1.73782558845994
  H   -1.15921717739513      2.42716991077565      1.57793965349295
