23
Coordinates from ORCA-job 16139optt
  Br  0.88958028211512     -0.12551820995979     -0.30258494426358
  C   2.78073130960338      0.11582595633008     -0.21381013261028
  C   3.32504518149014      1.34849346105696     -0.32270488241178
  N   2.54130343003976      2.50972142361862     -0.57382068400521
  N   2.43394462005923      3.55893398471922      0.32889753119028
  N   3.42126339106383      4.19653517253348      0.69299779539158
  N   4.69343533421327      3.89184042083437      0.27775091918113
  C   5.31536076106987      2.67487807585548      0.03558886148985
  C   4.77171387877669      1.48558339063432     -0.25143273428467
  C   5.67568830804258      0.28922115090643     -0.40919038995460
  N   6.91217814384539      0.35916740166894     -0.75368525459873
  C   5.02159087765483     -0.97726021930697     -0.13341980304678
  N   5.59415055511661     -2.16269869035900     -0.00514710074023
  C   4.55913488657561     -3.07146477210136      0.18277694861493
  N   4.70842702512902     -4.36091039024779      0.36731363109915
  C   3.28398634277348     -2.38422797863436      0.14338530355792
  C   3.58142909494159     -1.05733713288972     -0.04862270796472
  H   1.58618155048078      2.23268469089662     -0.75463303260563
  H   5.30640177672968      4.58408058938839      0.67296030517232
  H   6.39089846532944      2.76274560721956      0.12528865647654
  H   7.16881661027099      1.31647038387125     -0.98798966074434
  H   5.71230856674453     -4.54726902969542      0.34439989566676
  H   2.31642960793411     -2.85049528633931      0.23968147939009
