23
Coordinates from ORCA-job 16132optt
  Br  1.09756409545320     -0.13147376547724     -0.31159543244831
  C   3.00544526409971     -0.12981859822785     -0.10669403062884
  C   3.58635924418217      1.06692942435516      0.08100117619718
  N   3.13981573360696      2.38961354759060      0.16052393499795
  N   4.24103134793811      3.20844856965957      0.07038112221169
  N   5.28495906952073      2.54690683669651      0.15248396453243
  N   4.97298909877102      1.19807194930281      0.30584821892377
  S   5.94526083071834      0.02993355885525     -0.53134741101414
  O   7.24452707301731      0.06556556463290      0.06563960858523
  O   5.81855227187418      0.36463308758997     -1.92630714775054
  C   4.97412801638725     -1.36255154787936     -0.09201610849467
  N   5.71882557548280     -2.48003211664869      0.05675625408929
  C   5.15919834984060     -3.62559160654336      0.20062847289601
  N   5.93072225304539     -4.80657296352586      0.31565777023419
  C   7.21156270790491     -4.69151351023467      0.96376585969905
  C   6.08065868469064     -5.37277628884051      1.64761357668899
  N   3.63626321235758     -1.31185255864597     -0.11043424104413
  H   2.33020625973018      2.70523651434455     -0.35263825213438
  H   4.08310119319298     -3.77945248049245      0.19477554174149
  H   7.48502527243401     -3.70151579161200      1.30813694024062
  H   8.01088973151745     -5.28017833052994      0.53178306444136
  H   5.60680998661901     -4.83733976797765      2.46327589650615
  H   6.04310472761539     -6.45366972639173      1.70776122152960
