20
Coordinates from ORCA-job 16147optt
  Br  1.31635203502866      0.37184419750238     -0.09735169223871
  C   3.12531249580260     -0.03943195769568      0.21253912306266
  C   3.69563160082415     -1.25415745710995      0.22437192340917
  N   5.10737245556255     -1.17396883432447      0.18542427130713
  N   5.60798613057407     -0.19605167103499     -0.63338004272603
  N   5.07063447663523      0.88260710308586     -0.70022420134724
  O   3.94386377712304      1.02577982658256      0.29762316903470
  C   5.94021243417292     -2.34252371270508      0.27014554878010
  N   7.23419153146645     -2.27681294680802      0.27000317588489
  C   5.18289552925789     -3.53452730421421      0.34204732065054
  O   5.94540488875685     -4.67115276401169      0.46722794345112
  C   5.25104264595778     -5.85562289851786      0.73289921432354
  C   4.91160227941542     -6.00483259761930      2.16391396119699
  N   4.67632333440354     -6.17634756855856      3.27206455484509
  N   3.87264952245001     -3.66988448920459      0.26842146648952
  C   3.05183626653152     -2.60277586111333      0.17031422240509
  O   1.83166738268649     -2.68416140663932      0.07406849084876
  H   7.53306059377914     -1.30608099548125      0.20943690212733
  H   5.92208833238809     -6.67183381934927      0.46768739305058
  H   4.32687228718353     -5.92206484278320      0.15876725544475
