21
Coordinates from ORCA-job 16160optt
  Br  1.40478060159714      0.61070678980866      0.72266156466494
  C   2.89654626159016      0.10218469374821     -0.39827615252529
  C   3.42675621295348     -1.17039131105674     -0.25611176270203
  N   4.83489082561508     -1.30958274890646     -0.40018163933550
  N   5.73860377773534     -0.37690202672547      0.09897908097916
  N   5.50521619940139      0.82173233988268      0.00816016482414
  S   4.02409628304099      1.31469972058041     -0.84322355421181
  C   5.16697339798536     -2.64672060352342     -0.12507875800428
  N   6.52041197691705     -2.93747930984116     -0.14306565525513
  C   7.04754339063927     -4.19195033488975     -0.08628668584690
  C   6.55114094726430     -5.45706389147597     -0.32273059874394
  N   7.56862765852880     -6.34541474770411     -0.15893367168642
  N   8.64749636239966     -5.73197740830555      0.16168775621602
  N   8.34538208298242     -4.41716093567416      0.21775117898716
  C   4.05495284003631     -3.37450766675561      0.09955279211602
  C   2.88615395526374     -2.47426718822856      0.04746341712620
  O   1.69961567477449     -2.79247458847171      0.20493502599356
  H   7.11520394150865     -2.13705584069201      0.02267659391889
  H   5.56176447278229     -5.76030497207517     -0.60742324407992
  H   9.05526308066327     -3.75061181394913      0.46895565836852
  H   3.99158005632074     -4.43245815574494      0.28748848919662
