22
Coordinates from ORCA-job 16167optt
  Br  7.99185022926936      2.58936478211333      0.03906561041993
  C   7.82318168627656      1.48728852300188     -1.48025544406051
  C   7.27917004473444      0.18887109745399     -1.41202508862161
  N   6.83395054135056     -0.37749848333639     -2.52815195217303
  N   6.92267162782040      0.15940387929673     -3.67660313731057
  O   7.93579983732223      1.23637419740966     -3.80258836140632
  C   8.51845416932766      1.72034544067836     -2.68963372086987
  C   9.81771658691813      2.18756345272014     -2.80663874677629
  N   10.69088683845047      2.24493287401944     -1.68779056987166
  C   10.67692348462523      1.29860607538073     -0.69968466035171
  C   10.11640151315687      0.07468903035432     -0.78102820400004
  C   9.61093648912431     -0.55862803082043      0.43608023185872
  N   10.25085670092578     -0.82693954736523      1.51026295215048
  C   8.13364209230053     -0.87718509861764      0.51523320635482
  N   7.16692743019463     -0.59760571575894     -0.25757450241614
  C   10.39084932957635      2.47017213636620     -4.07189842286107
  N   10.89534032247007      2.74533808146755     -5.07262024550052
  H   11.02505640595658      3.15310557449289     -1.40823051700061
  H   11.02186341154760      1.66555248106382      0.26134578349639
  H   9.71124717045995     -0.26718160271398     -1.72193402222754
  H   11.24028500819938     -0.61258313403774      1.37747643208364
  H   7.89898907999269     -1.46098601316869      1.40519337908353
