19
Coordinates from ORCA-job 16163optt
  Br  1.64400884090489     -0.47985526044541     -0.65947624745102
  C   3.42194734213798      0.08166491675087     -0.79825177090291
  C   3.91685890789781      1.22216184010537     -0.33729121057399
  N   5.28509185894413      1.42594428651952     -0.39391442151259
  N   5.72672099768968      2.69276125707043      0.09556200637281
  N   4.66257577989513      3.46171843051608      0.31582646746283
  S   3.28641229285241      2.65073651038761      0.52811103861926
  O   3.03604695965463      2.23717945097131      1.88825055941225
  O   2.18399962945129      3.27232524682041     -0.15535588134055
  C   6.05241404199971      0.28470858065052     -0.37077555304423
  Br  7.77082189693211      0.40614056512420      0.38927752515238
  C   5.51994898972972     -0.87173019776669     -0.79792359481167
  O   4.26742751966951     -0.81812397332109     -1.42567569993258
  C   6.08763478973754     -2.21854819562293     -0.68260663832290
  C   5.22542212068918     -3.40558261324071     -0.71992774174945
  O   6.02205091874717     -3.05687802109858     -1.83728116560148
  H   7.02638988195671     -2.27786211365420     -0.14651829913976
  H   4.15909183794299     -3.26510076523074     -0.85524434172642
  H   5.53613539316722     -4.29965994453596     -0.18878503090997
