22
Coordinates from ORCA-job 16169optt
  Br  1.31918224278541     -0.73256041312639     -0.09882612890468
  C   3.15996083138943     -0.34206514840586     -0.07240771084861
  C   3.59773447941153      0.97669258642881     -0.11220735467700
  N   2.92051080968099      2.17128481252448     -0.17764370772483
  N   3.71978210719857      3.13519799542266     -0.17258647401799
  O   5.04790000288850      2.64494433881077     -0.09609588866027
  C   4.95779933740797      1.30552021026787     -0.06507560726235
  C   5.96057995823049      0.37118014966142      0.03104085826044
  C   7.38996412781715      0.55012585845121     -0.04859890904594
  C   8.12388029571272     -0.28049632929147      0.73498946329288
  C   8.80060251428863     -1.36434670212707     -0.00508032919416
  N   10.00325922901165     -1.63559091099561     -0.32087421656030
  N   7.77206272928934     -2.22931395694208     -0.39958769358597
  C   6.39149857128529     -2.10491913040770     -0.25549390277010
  C   5.55443342554985     -1.03044678467708     -0.02542831534834
  C   4.09464666002300     -1.42356123176440     -0.00235616543202
  O   3.75663499371738     -2.61298451953196      0.05154517957936
  H   7.82745071299112      1.02085504399904     -0.92732194465985
  H   7.58966032303663     -0.67957653634107      1.59430561528512
  H   10.61327230760165     -0.93381385317594      0.08694534898695
  H   8.09688427399734     -3.13033054852075     -0.71838269157393
  H   5.87630006668530     -3.04879493025886     -0.37785942513842
