23
Coordinates from ORCA-job 16175optt
  Br  1.06968324483329      0.16936000991976     -0.40299567071571
  C   2.93323729920448      0.01682374186318     -0.24570147018371
  C   3.69470285199399      1.07147352016080      0.23431913519672
  N   3.40456001566112      2.30938085722649      0.66196294634008
  N   4.44478603304017      2.95945971438210      1.01842242553860
  O   5.62368888959824      2.06328316539509      0.81617222422509
  C   5.11426869488147      0.92184568558879      0.34279409357559
  C   5.71468783746030     -0.21050237644612     -0.04224139720722
  N   7.09128424827225     -0.42335340991123     -0.12754869751754
  C   7.74661382749437     -1.47498037187039      0.46837558513256
  N   7.24053214147766     -2.46250062378147      1.08376129828656
  C   9.25559003985746     -1.46816381625192      0.26033238931494
  C   9.86372916909862     -0.14128958077538      0.27254552212018
  C   10.31752577240898      0.96746242225278      0.26900478603783
  O   4.95897166409013     -1.25348308191191     -0.53135581618857
  C   3.56141399160239     -1.21674134529624     -0.60497108751271
  N   2.96199727779966     -2.27634673046164     -0.99546033528392
  H   7.64767575689254      0.38566876780103     -0.36229570206733
  H   6.22380903816026     -2.40025417871048      1.10575302278343
  H   9.46130349597129     -1.94421617638385     -0.70223542579136
  H   9.68531670906227     -2.09837555238190      1.03673471452614
  H   10.71311314535200      1.95430999966233      0.27990764908906
  H   3.65050885578690     -2.99586064006979     -1.19928018969871
