28
Coordinates from ORCA-job 16178optt
  Br  1.07903526249525      1.17302713355653     -0.41991319543412
  C   2.92168320457136      0.25392999021353      0.33973269257359
  C   3.93616762379072      1.17309360715990      0.63304093869055
  N   3.98365411672547      2.34475493682114      1.33703429237237
  N   5.14314026854491      2.79048702196837      1.36269851017290
  O   6.00612327094160      1.89246713972203      0.63173514448443
  C   5.22488584883102      0.90935000914772      0.18377710207488
  N   5.64148000197117     -0.09046402484259     -0.54905154517145
  C   4.68409493277134     -1.00379880155989     -0.86487448120569
  O   4.89750633703635     -1.99281572549745     -1.54525570277402
  N   3.34680700777936     -0.83487809278233     -0.34862844267674
  C   2.35003085690196     -1.91386392695649     -0.55818748545448
  C   1.84472188393555     -2.02868106178076     -2.00982415966681
  C   2.45406330721535     -3.13844791654071     -2.86476497521746
  C   2.45604687392405     -4.46730488219698     -2.11505702923429
  C   3.28236251990225     -4.35510720443337     -0.83750539932997
  C   2.73398275820902     -3.26389731003188      0.08441324344695
  H   1.50987155339952     -1.53798367498523      0.01962678598817
  H   1.95439705594920     -1.05484675189438     -2.48909857155454
  H   0.76617297544809     -2.21004777279440     -1.94262609007687
  H   3.47649128555289     -2.88085294851928     -3.13619718865847
  H   1.87069584080194     -3.22641465997121     -3.78593465749357
  H   2.85353417758528     -5.26205458318271     -2.75149877876361
  H   1.42401827746255     -4.74544445555808     -1.86331634136938
  H   4.31509676889175     -4.13567839297919     -1.09962617324544
  H   3.26570359862514     -5.30508127241675     -0.29466519650500
  H   3.42644271047994     -3.07464910931997      0.90749214255961
  H   1.81478968025688     -3.65179727034552      0.53747456146849
