24
Coordinates from ORCA-job 16170optt
  Br  1.10014063320052     -0.08505475795861      0.19479900032551
  C   2.97424187009546      0.01587579395274      0.07994618275571
  C   3.70825394976832     -1.12721513535414     -0.22202829408885
  N   3.37196222667836     -2.40480192910459     -0.45071137478378
  N   4.38363983521594     -3.13026429921914     -0.76095277201642
  O   5.58570883168470     -2.23784632227888     -0.75651367084125
  C   5.11613108685175     -1.03164877027394     -0.41512169535660
  C   5.76372882260290      0.13272639946673     -0.24433429423468
  N   7.16547815249100      0.24788228989574     -0.34819349133060
  C   7.90617414394256      1.15280662239542     -1.07935609644379
  O   9.02078241705068      0.86013244828081     -1.48443971171253
  N   7.37725609499115      2.39348153249876     -1.33079413550433
  C   6.38116003479645      3.16243465338208     -0.59382273888168
  C   5.80559148109623      2.39405654959055      0.58168212723937
  N   5.03037706389329      1.25895914887630      0.15310739913086
  C   3.60759738772589      1.29350394706365      0.19661175604844
  N   2.93191761643811      2.39110007387250      0.35699289464378
  H   7.64241332425340     -0.64214633752547     -0.30675941771845
  H   8.02686336440323      2.93000857690861     -1.88247825898646
  H   5.56093748989549      3.44446353098916     -1.25940901663688
  H   6.85296997135092      4.07819301340031     -0.22386654623969
  H   5.17358081573878      3.05009320382999      1.17464401312241
  H   6.61679479467007      2.05462463150153      1.23045501347094
  H   3.51929859116473      3.21463513580985      0.32854312803901
