18
Coordinates from ORCA-job 16171optt
  Br  1.41141072009865      0.11662878362797     -1.12183576527144
  C   2.97531409765249     -0.04187262326326      0.04449893964981
  C   3.66350303372389     -1.25407883177235      0.02792137353328
  N   3.23418195364260     -2.54887154591129      0.01654572994203
  N   4.19452648715666     -3.33915082289004      0.09572540432680
  O   5.41530426205748     -2.56659280457674      0.17195158856430
  C   5.05609537777846     -1.28944633454035      0.09947340062631
  C   5.86310908036422     -0.17324579564021      0.06419966211930
  Br  7.69877092246684     -0.48369757611772      0.38296919526778
  C   5.22544130068441      1.10683561516623     -0.00842037374392
  C   5.77613375192981      2.36679389713373     -0.16042629108888
  Br  7.55609062089844      2.66606316329293     -0.72012709275627
  C   5.02818027261634      3.59713651244956      0.03114736029316
  O   5.49813237270109      4.71017529708837     -0.10702378057037
  N   3.68290202393058      3.45045599758712      0.41765225963084
  C   3.17109423557481      2.28570519611370      0.41836579138592
  N   3.80553210166303      1.09979240602880      0.14305621477200
  H   2.11927738506011      2.15936946622357      0.65032638331933
