18
Coordinates from ORCA-job 16179optt
  Br  2.13488275867375      0.81199681767856     -0.59908372130153
  C   3.77523688947513     -0.13923925872527     -0.66295727122661
  C   3.96196205813050     -1.36299716206220     -0.16087291863292
  N   2.85333624407088     -1.98349307406830      0.51752988610365
  N   2.93410982700493     -2.80571574628660      1.34297650336433
  O   4.79518239970106     -4.13352031131220     -0.23319649329611
  C   5.61588736823121     -3.23283054926020     -0.01833862465947
  C   5.33585915005022     -1.85176052452416     -0.09201189581823
  C   6.26031437754109     -0.75604775535779     -0.04984777691000
  N   6.05076506190571      0.44246571313782     -0.46623412716726
  O   4.78728926006786      0.57433786033452     -1.17228508147380
  C   7.66556964522212     -0.93471542024566      0.45818314942758
  O   8.18976258282935     -0.29537552949950      1.32385603868681
  C   8.39041834743145     -2.06089455142501     -0.28356007598277
  O   9.12262240110513     -1.83926518977622     -1.20677783096191
  N   8.15322559236348     -3.32820665388327      0.24030726878838
  C   6.97527684570565     -3.77389197472269      0.39182381496522
  H   6.86729919049039     -4.76684669000183      0.82848915609465
