19
Coordinates from ORCA-job 16183optt
  Br  1.20507273301064      0.20133195030307      0.06225962317561
  C   3.11199477339632      0.15514383001277      0.06728593041732
  C   3.84590793121273      1.37150559743960      0.06662775588524
  N   3.16800808136679      2.51409767146054      0.06414749760993
  N   2.48127480258254      3.41228590822509      0.06238699360895
  O   5.50045485636403      3.66551669284334      0.06560826739581
  C   6.02611179834444      2.55935950162125      0.06835205362103
  C   5.28710795389581      1.32058035876376      0.06878868064975
  C   5.89354473422848      0.04103147087738      0.07144558590472
  C   7.25136781752882     -0.35248017658071      0.07275167399919
  C   8.39875925161120      0.47116015637751      0.06999602482616
  C   9.40885777756210      1.12892956923555      0.06792147808335
  C   7.46050218976201     -1.77447502332239      0.07573688829868
  O   8.48624248566806     -2.41941261772902      0.07714715934515
  S   5.83506112927533     -2.60647119330817      0.07717180249343
  C   5.00777083782336     -1.08297162458193      0.07309941642968
  N   3.68345459809920     -1.01011660832015      0.07080082400301
  H   7.11703637553016      2.46302065363989      0.07088378918315
  H   10.29446987273790      1.71496388304261      0.06558855506984
