19
Coordinates from ORCA-job 16186optt
  Br  1.15436689221805     -0.05819553475588      0.03630831017371
  C   3.03226689977855     -0.06221622620417      0.03785603196734
  C   3.71859645423475      1.16026747453249      0.03879870525086
  N   3.05393336188649      2.31286596727096      0.03869981217689
  N   2.43808076276499      3.26588481722034      0.03917230073543
  O   5.54762623761903      3.47972700619576      0.04126335805426
  C   5.97155787920703      2.34187888447846      0.04073366526378
  C   5.15778933344432      1.13962965155227      0.03964079995901
  N   5.80164623444915     -0.00727787092622      0.03947247564420
  C   5.17687011918538     -1.17223311302322      0.03878548386809
  C   6.07270707791785     -2.34145004853257      0.03865839956412
  O   7.27794766653057     -2.29007743076058      0.03882114057105
  S   5.30977069754677     -3.94329397061579      0.03827983463315
  C   3.51649957971424     -3.65430654651008      0.03872711299258
  N   2.77085986956982     -4.69381879585398      0.03952683764304
  N   3.00852572953360     -2.40799288291144      0.03813101419538
  C   3.72990192348972     -1.30444694794071      0.03816617429854
  H   7.05272540850715      2.11835552441571      0.04096221097579
  H   3.32932787240252     -5.54329995763135      0.03999633203276
