19
Coordinates from ORCA-job 16188opt
  Br  1.12682092396694     -0.42481899199313      0.26216947796516
  C   2.96401570608521     -0.05809381317058      0.09160777653405
  C   3.49912663115168      1.17410108784489      0.03107222109713
  N   2.70516315520085      2.36109131689647      0.23583837112368
  N   1.67533143532170      2.62345787599127     -0.23631282701146
  O   4.67326827905384      4.32888888581446     -0.40532227887060
  C   5.70937894445970      3.70653724832629     -0.30247596838683
  C   6.98186310212893      4.49933936478861     -0.35403355455373
  N   7.87349122554070      5.21865366646827     -0.40100828053448
  C   5.89245508615668      2.29314644357460     -0.15161183967216
  N   7.15992007605823      1.77182868208924     -0.16687634078527
  C   7.03651472348514      0.46049380021956     -0.08488942929799
  C   5.67742323662928      0.07531880265232     -0.00905817203242
  C   4.93424977038633      1.26189585131705     -0.04303850444012
  C   5.06478257051618     -1.22253848032804      0.07706953628252
  N   5.56312887144898     -2.38541834643050      0.13191560481440
  O   3.66941880985410     -1.19984480142325      0.09604498080288
  H   7.90367610513538     -0.18660475432923     -0.08432767252401
  H   6.57597134741982     -2.30943383830837      0.10723689948924
