19
Coordinates from ORCA-job 16197optt
  Br  1.33128869877692      0.03804584726266     -0.09725288038347
  C   3.24406873690378     -0.06044167201310     -0.07637146661767
  C   3.88003589041905     -1.32833025637648     -0.02835044429514
  N   3.11115171508112     -2.41266582906663     -0.01130176197895
  N   2.38321267716803     -3.27693288888745     -0.00582910434855
  O   5.34296851347067     -3.71058780463683      0.39985856267541
  C   5.92152047661834     -2.68246927978177      0.14690717245471
  O   7.31306287423741     -2.71438810540217      0.10440139253258
  C   7.93905230795518     -2.26695485025537     -1.00548164211037
  O   7.47055141989698     -2.27149359549736     -2.10160647159873
  C   5.31263256854409     -1.38772790135230     -0.01638165403399
  C   6.06087824831409     -0.14843284864305     -0.08385188771901
  O   7.29825370708426     -0.07039761111642     -0.10713476753500
  C   5.23723607414166      1.06095523414983     -0.10665664953165
  N   3.90070638850830      1.04914493180595     -0.10432241430915
  C   5.88377468449297      2.32747133355392     -0.13346513743655
  C   6.43118355656003      3.39858441002381     -0.15444421736972
  H   8.97063676141953     -2.00256310214437     -0.76140732277847
  H   6.91978470040753      4.34118398837714     -0.17530930561627
