19
Coordinates from ORCA-job 16194optt
  Br  0.81829493221128     -0.43284102071447      0.34850136209681
  C   2.66225074514392     -0.08639897982701      0.20748691880941
  C   3.11646389421179      1.20218155205905      0.10388928081781
  N   2.36101788325185      2.39315720131805      0.21741842939685
  N   2.63415499948974      3.04239633436766     -0.78698814363362
  O   2.71950924822869      4.43377973948593     -0.40343739313771
  C   3.95590242361572      4.57081178203390      0.14574109979953
  N   4.39949148869510      5.66834191894482      0.57133168158556
  S   5.14705737060160      3.20870706119736      0.25112995047496
  C   4.51923081642968      1.52997259431947      0.02755703113285
  C   5.47327790909303      0.55384003384109     -0.01031967530201
  C   5.04211498419494     -0.80053743070784      0.02576324692967
  N   5.74444194552811     -1.89582353973212     -0.00524750663250
  C   4.77300131481399     -2.93361992949103      0.09557866537241
  O   5.04692542788373     -4.11369169096317      0.09733398865414
  N   3.44555277234265     -2.43055836259073      0.19479571174595
  C   3.60239158860616     -1.13696328665534      0.15456623952914
  H   3.71469109066440      6.40871475876013      0.42973301574668
  H   6.53022916499360      0.78653126435424     -0.02683390338594
