22
Coordinates from ORCA-job 16207optt
  Br  1.42076287119587      0.05135160229992     -0.44860945038763
  C   3.28988043787565      0.00162802064377     -0.16658275731672
  C   3.89800609907323     -1.23579222908880     -0.03538946845901
  N   3.28274467075410     -2.46869246784577     -0.09501604598156
  N   4.05078530020446     -3.45378415796756      0.05487617693117
  S   5.68180603690472     -2.98618433172177      0.29534149483112
  C   5.29607794293893     -1.31612812625665      0.18733654858915
  C   6.07345788460177     -0.18416079567235      0.28017973884310
  C   5.47534059957721      1.08200133210647      0.15328877519788
  C   6.20825018873058      2.28546655573712      0.24950005304645
  N   5.57364094162219      3.49005170112627      0.07052432428462
  C   4.22576231805670      3.67893672809741     -0.18993588648979
  N   3.68699589886533      4.84430885338945     -0.35662309204437
  C   3.47113687232160      2.46462274328539     -0.25579353542838
  C   4.03729070871936      1.20817647781166     -0.09849783691442
  C   7.60190214503813      2.40098445372137      0.53997321664619
  O   8.18414165007136      3.48825443018972      0.60947288466852
  H   7.13629949564798     -0.27116902993554      0.44919714916239
  H   6.18172575302775      4.29411303323611      0.16121290233883
  H   4.38841759225331      5.57747606254998     -0.27449213278091
  H   2.41616983577620      2.57486118164254     -0.44720133569533
  H   8.15840475674350      1.47067796265123      0.71523827695868
