23
Coordinates from ORCA-job 16204optt
  Br  0.90936864971863     -0.29618651958895      0.04446439989023
  C   2.78666890437915     -0.14709751898432      0.01957023121202
  C   3.37432934387504      1.12529023533598      0.00874548212282
  N   2.76652865302420      2.32287615809422      0.00898018011784
  N   3.54016862996094      3.36536237551170     -0.00030609003482
  S   5.22532953690270      2.88869636922662     -0.01133534354627
  C   4.81512787582918      1.21987388042846     -0.00230891354622
  C   5.56265835961488      0.09740245147718     -0.00213927940245
  N   4.93504278468161     -1.16235576507681      0.00458866844932
  C   5.88599792149906     -2.27036799412187      0.01001110439769
  C   7.20083156049788     -1.54966750954240      0.00537467214475
  C   8.54959870217328     -1.76205887693400      0.00881412117462
  N   9.14612612500028     -0.52164106603195      0.00259055660320
  C   8.19983980574764      0.47717507294015     -0.00469626474987
  C   6.97913041281426     -0.14839155453304     -0.00282035918615
  C   3.55098917232123     -1.36206246103478      0.01674261220886
  N   3.01633057575603     -2.54679901151809      0.02543305766557
  H   5.74011948492041     -2.90675820525597     -0.87066515462206
  H   5.74084207608234     -2.89628672518901      0.89827752272556
  H   9.14529907497344     -2.65906189782006      0.01492488080067
  H   10.13717063490287     -0.36667230201301      0.00302614616379
  H   8.47619598445586      1.51701722061371     -0.00961825431473
  H   3.72730573086900     -3.26928635598374      0.02134602372562
