24
Coordinates from ORCA-job 16201optt
  Br  1.07592817013281     -0.30196785349548      0.33492361801469
  C   2.96857643369444     -0.21848264225312      0.17012512404403
  C   3.69437954006346     -1.39684426851116      0.08483855327386
  N   3.13736539149776     -2.64949170593417      0.32907309681252
  N   3.75526252425979     -3.67211317462623      0.07140035279498
  O   5.02861623001221     -3.52699308969354     -0.58360228388290
  N   5.80709209830883     -2.40110969815863     -0.30524044745979
  C   5.10212898767945     -1.33802025690935     -0.04336386040485
  C   5.79039190687656     -0.02005503953237      0.15474318432972
  O   7.00231426154206      0.04293475984008      0.28694292846456
  N   4.98399724272328      1.08610385399217      0.12897586320952
  C   3.65710306158410      1.00094304333721      0.12329589293332
  C   2.93665753531637      2.32423019385862      0.10010834405969
  C   2.64210703983130      2.85660774740939      1.50363134961242
  C   2.02832406798965      4.24397086249408      1.43723022658844
  C   1.63277256701296      4.84216015324568      2.75446399430136
  O   1.73229309186029      4.30452737059233      3.82257965552171
  H   2.00230107181110      2.24624212525056     -0.46057721771234
  H   3.59314025682895      3.02582126235454     -0.41808895845992
  H   3.56911299605691      2.88710969266726      2.07948659614853
  H   1.96485174167009      2.17967983042501      2.02827910594353
  H   1.12633949670435      4.24917529067405      0.81053423299787
  H   2.70884630200359      4.95693561127432      0.95473965323442
  H   1.21209798453960      5.86863593169869      2.69150099563462
