19
Coordinates from ORCA-job 16200optt
  Br  1.11601245263390     -0.13062900086619     -0.06693366248773
  C   2.99276930431566      0.00400182400906     -0.07126703102495
  C   3.65053336205418      1.18000615221969     -0.06839908786931
  N   2.93794897229182      2.39187328540208     -0.05379695991847
  N   3.53218288927442      3.45934827444555     -0.05900321379291
  O   4.92422887907737      3.49949777730337     -0.08118043789925
  N   5.73394803611259      2.34243991660767     -0.07126590526480
  C   5.09453357834263      1.21510221785334     -0.06920299386356
  C   5.81300346714410     -0.04941290840333     -0.06471979630024
  N   7.12959881275327     -0.09336708528390     -0.05959173911168
  C   7.74480630992194     -1.32015743149208     -0.05912818557106
  N   9.02727745012660     -1.43702265446283     -0.05628652933142
  C   6.91356152587428     -2.60128715092095     -0.06197698299448
  O   7.43608098904703     -3.69370051034392     -0.05866484736713
  N   5.53732883613753     -2.46742039954013     -0.06887677704806
  C   5.04578773321440     -1.26157057085957     -0.06951243052333
  N   3.66127270699526     -1.17718278881077     -0.07580374991106
  H   9.40743162331927     -0.48805157706946     -0.05471732785078
  H   3.16869307136365     -2.05746736978762     -0.07967234186977
