21
Coordinates from ORCA-job 16203optt
  Br  6.61186700715806     -1.61141008851488     -2.84108843739643
  C   8.02672239823221     -1.18747671830283     -1.63466352360714
  C   7.94813949591454     -0.15090394434723     -0.63826851587834
  N   7.82928239000291     -0.48253526274361      0.69791867395405
  N   7.82101782417075     -1.60111179152278      1.22225372368711
  S   8.29673894770028     -3.02484700306293      0.26168970151214
  C   8.95465552613188     -2.19790799789570     -1.13071303685119
  C   10.25256916593305     -2.04394043203613     -1.42670461321003
  S   11.63886843165558     -2.25690256722682     -0.35052058934487
  C   12.13872388049462     -0.56161448818212     -0.53951178768391
  C   11.65809242215988      0.48304690749531      0.14487178623240
  N   10.87539284821956      0.46779448380356      1.29110451981524
  C   9.77271126522793      1.05455492819563      1.46311608322382
  C   8.93290870214108      1.85490489194146      0.46973520437378
  O   8.70868644947165      3.00862383611200      0.72027971979681
  C   8.45109265375260      1.16930895142145     -0.83861181923817
  O   8.68271143129921      1.75038420401482     -1.88660782298234
  H   10.48737052477451     -1.46531168629279     -2.31439287182721
  H   12.82638411285335     -0.35140381666887     -1.34906712669241
  H   12.01874133606772      1.46948071978627     -0.14283563732214
  H   9.34532318663829      1.04526687402621      2.46501636943884
