16
Coordinates from ORCA-job 16217optt
  Br  1.12591201379639     -0.23606882340296     -0.13243102065741
  C   2.99733865483844     -0.14335038694191     -0.03427417993817
  C   3.70005217075610     -0.79869942579871      0.98055054195679
  N   3.01294981724994     -1.41385559004471      1.93944169892415
  N   3.51572907126490     -2.11834560874353      2.91596737284570
  S   5.11891415698573     -2.71213640554179      2.72931784971303
  C   5.95242648116458     -1.51005550566275      1.76779444729278
  N   7.21320844594183     -1.42296642392359      1.67276105767845
  N   5.12006380465810     -0.65561542501559      1.02241231545437
  N   5.78717632832824      0.37168116540918      0.44406261777620
  C   5.27438944295389      1.02169890387662     -0.51250953259241
  S   3.76674650932251      0.63353991489654     -1.33580988218026
  O   4.09054082894462     -0.25205953181722     -2.42951403775437
  O   3.11763454425800      1.87315041178875     -1.68991025227659
  H   7.64958157135876     -2.09081790114476      2.30338002276595
  H   5.81933615817785      1.86590063206644     -0.92123901900822
