18
Coordinates from ORCA-job 16216optt
  Br  1.16976797033974     -0.10255472797571      0.39222760475046
  C   3.03551504151418     -0.05996552779805      0.19419441517611
  C   3.73782392853417      1.15158619111431      0.02147464018418
  N   3.05232662998746      2.28783526941228     -0.02234001503373
  N   3.48935197914319      3.46902538545675     -0.31624939815276
  S   5.16145605453723      3.64221065582234     -0.80100125650857
  C   5.88302451680738      2.28245767994539      0.06271406252853
  N   6.94236408952001      2.32656925096003      0.74503547721447
  N   5.15717662977992      1.07446566081363     -0.06516429951820
  C   5.92505429263581     -0.12626864344928     -0.30567787083480
  O   7.08982402746139     -0.07822126512655     -0.62269034012194
  C   5.12536909545718     -1.30029869804128     -0.13397389631595
  C   3.76748327283537     -1.22631567296456      0.11894080170411
  O   3.30217658661036     -2.49818386525254      0.21626820197451
  C   4.41393866074136     -3.27492445626101      0.00747942502634
  N   5.49742200285000     -2.63516318111439     -0.20685885666060
  H   7.32419338029699      3.26988439039552      0.72139135237060
  H   4.25973184094823     -4.34013844593689      0.04622995221721
