20
Coordinates from ORCA-job 16225optt
  Br  1.26663373225020     -0.49367769457441     -0.51011263704287
  C   3.09386969619892     -0.09915373219397     -0.37048254267967
  C   3.61775317545272      1.12660108771935     -0.48158046491603
  N   2.94072124464147      2.32325329699034     -0.69514219243930
  S   3.98311188365143      3.64123600360641     -0.36423619202861
  O   3.89937088316137      4.62280571627374     -1.41785347919926
  O   3.57103756439945      4.14276311284432      0.93205964627607
  C   5.38329688180957      2.69176183616329     -0.41437316449413
  C   5.05276601648174      1.32995974153945     -0.41664150286900
  C   5.80119825358263      0.14625882668807     -0.45821424083915
  Br  7.68700106680514      0.24427634771938     -0.66055530029287
  C   5.20676397684214     -1.08739789513096     -0.40197269792313
  N   5.82886771909101     -2.31834957302158     -0.51207968548121
  C   5.25702687733722     -3.54721978879481     -0.40544171301079
  O   5.89756479758464     -4.58495888520446     -0.46523965382882
  O   3.86653698877717     -1.21638118750042     -0.10509701730136
  H   2.04895527480742      2.41983772687859     -0.22447218007221
  H   6.34516845038873      3.15251519949901     -0.55037354596899
  H   6.83246276622287     -2.30682027186586     -0.63519890965840
  H   4.17189275051411     -3.51330986763547     -0.26599252623027
