22
Coordinates from ORCA-job 16229optt
  Br  2.06573760552946     -1.55714998939307     -1.60319922834711
  C   2.89583856282199     -0.13494630521069     -0.65512716975728
  C   2.58940991898439      1.17536391999809     -0.88697417013426
  N   1.71757992710842      1.62228317231676     -1.92366209991089
  S   0.28173187544215      2.36349047382954     -1.50122586877682
  O   -0.28491994874518      2.75271347050380     -2.76572980335154
  O   -0.50258034060548      1.54092028245771     -0.62161361992967
  C   0.80526190020190      3.78440677981267     -0.60769361230108
  C   0.50172722362312      3.93160035165033      0.67530369401232
  C   1.17627719958477      4.93797561879586      1.58613241131423
  C   2.37801646946996      4.18117200524722      1.99180369704209
  C   3.06951601350152      3.19397359056151      1.85885433361679
  C   3.48943355911210      2.04284567423301      1.12046074485037
  N   3.03748736405244      2.18001090198118     -0.14748008280709
  C   4.03246388907221      0.87072426200354      1.70901973368964
  O   4.49761546734053      0.70087109985228      2.81767198012998
  S   4.05061599869164     -0.58798784785708      0.56677976042349
  H   1.52578629686253      0.96364182792150     -2.67147047835646
  H   1.46473369064013      4.43710763263809     -1.16321220844287
  H   -0.09418922046103      3.16336233379317      1.15647315030776
  H   1.44569988686428      5.84933660459029      1.04843917112518
  H   0.54175666090813      5.21528414027425      2.42844966560321
