25
Coordinates from ORCA-job 16227optt
  Br  3.95699146580483      7.77845198530145     -1.97397611794152
  C   3.73912426041549      6.64796498208790     -0.48517464704431
  C   2.81946754431208      5.63511241255617     -0.49058872051954
  N   1.99144505581040      5.39621680565514     -1.57791767630072
  S   0.29026984763856      6.06994334924724     -1.48631711063895
  O   0.44097897651335      7.27322155966288     -0.70724899416467
  O   0.00201475228328      6.18319744224455     -2.89581250392514
  C   -0.57703009411925      4.88506948198141     -0.70357404537907
  C   -0.18430424887273      4.63525341227567      0.63751999379040
  C   0.61916444253240      3.44488309690735      0.98451025067443
  C   1.39472374965750      2.76669960430713     -0.09117397954616
  N   2.10724172817112      3.54173196083566      0.89642159135085
  C   2.79228563485713      4.76069103312854      0.70488082635163
  N   3.50711779458726      5.05173991520409      1.74096954754885
  N   4.28616135916355      6.13419595825266      1.72109145335126
  C   4.59027180663475      6.94290621258157      0.64658990667653
  N   5.48759714938160      7.86327686473486      0.66034320877309
  H   2.35488196627342      5.86951260485120     -2.40076242850571
  H   -0.71516212001909      4.04580741814290     -1.37677852426356
  H   -0.11708476109506      5.47370558744637      1.32325976590000
  H   0.34249537304345      2.85889607847803      1.85651685108385
  H   1.59514161091902      1.70213254333741     -0.02572002208741
  H   1.29341263575588      3.16235003228807     -1.09109927243424
  H   4.82529989011132      6.25457197587765      2.56312545953342
  H   5.95349418023974      7.90046768261401      1.56491518771669
