22
Coordinates from ORCA-job 16222optt
  Br  1.09580618872810      0.10874752628893      0.13570286927252
  C   3.00070159613719      0.09499392421510      0.03442303334789
  C   3.67484934855716     -1.15675695896654      0.12302264944456
  N   2.86008376825428     -2.32753718390151      0.19442732100231
  S   3.05485118256083     -3.68016957300067     -0.66341188110001
  O   3.05524114040304     -3.42072654538166     -2.07413414525113
  O   2.13981447511785     -4.64362312194315     -0.10919834356530
  C   4.74659519023365     -4.20155971005750     -0.22657700337735
  C   5.81357006396749     -3.37759546192911     -0.93774869136533
  C   5.79972284161609     -2.56132374446541      0.37191251413335
  O   5.08551166708552     -3.64970857219827      1.03358882046234
  C   5.07316969847254     -1.24383969035192      0.28459861531526
  C   5.89758353992099     -0.14890158251686      0.23594204170667
  S   5.38750360255040      1.47072876115777     -0.11675163080409
  C   3.56224824338658      1.37940449845283     -0.05832385161398
  O   3.00485689175766      2.46668329882927     -0.12199398638808
  H   2.31472476264504     -2.48557170029478      1.03255155722407
  H   4.76342694711930     -5.29118423039500     -0.25880523874049
  H   5.52410923827742     -2.86224180860794     -1.84821713870177
  H   6.73531340329865     -3.94033589454760     -1.07417992275978
  H   6.76836730824065     -2.41005954696673      0.84696751841853
  H   6.96294890166950     -0.25742268341920      0.39220489333982
