22
Coordinates from ORCA-job 16220optt
  Br  1.02580034023492     -0.12950921439276     -0.02271868306288
  C   2.90929019149213     -0.11376998957902      0.02172236370906
  C   3.64217627475399     -1.25751022664707      0.05617978471112
  N   2.91713322369927     -2.48368600585129      0.06412324276610
  N   3.53076807873034     -3.58821724475969      0.11347957109683
  S   5.16037961837819     -3.74113529464269      0.16398123712047
  N   5.87596880334318     -2.30114808053466      0.12815742595290
  C   5.07798957049426     -1.20517089933022      0.08162668714117
  C   5.74362367839586      0.06573852908104      0.05276161251700
  O   6.92999730892076      0.28068766558776      0.04964813783617
  O   4.91482861720967      1.19260795732967      0.02710489640458
  C   3.55320284327957      1.18486812882652      0.02564839521760
  N   2.92646853922257      2.29098359480638      0.02853378571882
  C   3.71988741616512      3.49804111780074      0.03900439013220
  C   2.77538033122010      4.69997834976819      0.09898630735349
  C   3.49172818002282      5.97247909457041      0.10170575702171
  C   4.11259812659135      6.99866570153290      0.10190564772143
  H   4.34986859695026      3.56978554248122     -0.85427908912682
  H   4.40374148165864      3.52458126329100      0.89416862755847
  H   2.15829788027156      4.62199416469364      0.99635145890398
  H   2.09637193476082      4.66001058820857     -0.75509023715123
  H   4.66649896420453      7.90572525775935      0.10199868045782
