24
Coordinates from ORCA-job 16233optt
  Br  2.32486093598573     -1.27864793047644     -1.55553221380176
  C   2.87138975863996      0.11871883696926     -0.37449090474815
  C   2.95546143970632      1.40845906162415     -0.86109095999117
  N   2.20241217136478      1.86936927781484     -1.97533696830994
  S   0.68265359141427      2.46814585001782     -1.83407359808690
  O   0.37099986486933      3.03362700086415     -3.12059857396226
  O   -0.17001951347982      1.48163425108923     -1.24328199118298
  C   0.75814745589183      3.82732657645717     -0.66496959413884
  C   0.67509383958182      3.36915911075284      0.78739079420243
  O   1.27747525874759      4.37209630131304      1.61290769323009
  C   2.21731082418677      4.08510310425931      2.54193387772085
  N   3.01807342604860      3.12152428324821      2.67410251882848
  C   3.22933102129682      2.10829264188557      1.73755452613987
  S   3.80356075737931      2.60477222706248      0.11463675654015
  C   3.06326802583852      0.80136257761121      1.98208676044744
  C   3.13946724229162     -0.28143845748286      0.98119180862328
  O   3.26453125123296     -1.46490148969481      1.35325803955528
  H   2.69178141577559      2.33126930505447     -2.73081836788063
  H   -0.07675373338897      4.47427887006324     -0.93563204893754
  H   1.69324729229846      4.35448079357479     -0.84146509064857
  H   1.13174379177596      2.39563249204003      0.93264882425530
  H   -0.36722664663930      3.29337172304455      1.09625178368164
  H   2.23619785057738      4.88837777041407      3.27428297723300
  H   2.76399267860430      0.48798582249347      2.97604395123090
