23
Coordinates from ORCA-job 16245optt
  Br  1.09813518187116     -0.17605787971351      0.62791752812906
  C   2.91754617187525     -0.21396977807447     -0.00729556763651
  C   3.51016795628167      0.94984169695152     -0.42418215488562
  O   3.06644704021690      2.25293443601054     -0.27908893915952
  C   4.25630095713841      3.03852667778375     -0.07701965934956
  C   5.40630591380603      2.32793731538439     -0.79444826558272
  C   6.57084597454495      2.18346216739172      0.20150528961295
  C   6.99923786699502      0.69781657668035      0.15720995959553
  C   5.70445226446313     -0.00831357357467     -0.19819510650034
  C   4.85720985001652      0.94029971977129     -0.77836342182995
  C   5.12867782404038     -1.18285936606177      0.21582010473007
  Br  6.24577343923167     -2.48003764684493      1.14174532050029
  C   3.73428587031816     -1.34622314075058      0.16837162696404
  Br  2.99424910819858     -3.15417994468203     -0.31967013613640
  O   5.98447987533305      2.49362410108210      1.47819609992852
  C   4.72862348940554      3.00726513499500      1.37796949371841
  N   4.05400790794207      3.42079477265162      2.35327753720232
  H   4.02258567761370      4.05701854519292     -0.38024306181734
  H   5.69278641824845      2.74966790242259     -1.76039072083812
  H   7.40276024145793      2.87488266064531      0.04900384910454
  H   7.40545990595485      0.37091954445490      1.11450600513300
  H   7.77437732112906      0.56172906349359     -0.60328510076062
  H   4.56628374391742      3.28192101479035      3.22365931987797
