25
Coordinates from ORCA-job 16248optt
  Br  1.12372490021154      0.27762444479666     -0.18222236010976
  C   2.99966773399626      0.17523610988595      0.08213055482279
  C   3.82225223194783      1.24056231809823     -0.31594133275875
  O   3.29254742498645      2.31863738398817     -0.99052334700687
  C   4.31143986193676      3.30287126299180     -1.07883898831647
  C   4.21504635619750      4.33854238984106      0.04129831762975
  C   3.89957582262828      5.81777827393401     -0.17971403988414
  C   4.73712462329907      6.50229015123327      0.92616237095385
  N   5.85028085105830      5.57732331638030      1.17853969522546
  C   5.65213318317475      4.41302460853764      0.47431226279644
  N   6.46013434281295      3.52790410123602      0.07267132308182
  C   5.67842036206058      2.60510241244297     -0.77967762064121
  C   5.19680075374245      1.31712657248062     -0.15175802032747
  N   6.01284629442866      0.40860636103953      0.37197286069586
  S   5.31777294229424     -0.99300338454567      0.96345565418560
  C   3.51605179285451     -0.98123932979620      0.69608613794231
  O   2.92465409056863     -1.98212392395636      1.07898162590212
  H   4.25531357564103      3.75811748359645     -2.06926712663434
  H   3.60249064718559      3.92373262904207      0.84731335534130
  H   2.84204982153422      6.06704031035421     -0.11099444824559
  H   4.26498715903901      6.12736558746944     -1.16236714002155
  H   4.14272565247685      6.63705420646775      1.83380878834663
  H   5.10326645048090      7.48225482776178      0.61657711800689
  H   6.78954721978178      5.92954341004898      1.25945395748994
  H   6.27314590566178      2.39862847667128     -1.67345959847458
