25
Coordinates from ORCA-job 16246optt
  Br  10.62274213604274     -8.38523617064133     -4.42859756933804
  C   10.49698284886774     -6.89580369288897     -3.27033614020078
  C   9.32033356961081     -6.27077729442870     -3.03630987847935
  O   8.11290090467441     -6.70616620599385     -3.62534399781885
  C   7.19897320704888     -6.00306000343403     -2.80072860035254
  C   5.80208949734318     -5.29893341528460     -2.82438046882256
  C   4.76374669491663     -5.89111884016575     -1.92648502541484
  C   4.97427614802434     -5.49716521139958     -0.67544266939082
  C   6.15225813868145     -4.55909667354551     -0.58220892372560
  N   6.45550484797390     -4.22340855838004     -1.97958489390904
  C   7.79237159799146     -4.66199602058012     -2.58965650430151
  C   9.19116639815676     -5.07005486636342     -2.25243732922789
  C   10.29390141534003     -4.32765725103686     -1.80648942031383
  C   11.63819759255143     -4.75096765336619     -1.86763793800259
  N   12.72507293061808     -4.15677755303521     -1.47563182969976
  S   12.00538307870604     -6.39726247535778     -2.52283940075003
  H   7.19203857824332     -6.52636223463072     -1.83802252785109
  H   5.46255524156488     -4.92115148020349     -3.78815771638444
  H   4.00075845691589     -6.58421934754956     -2.25404119160806
  H   4.40050006035250     -5.80789594846221      0.18857795834367
  H   7.00324218480307     -5.04004863453055     -0.08022073765758
  H   5.90912205631357     -3.65604344069255     -0.01479305406281
  H   7.80344954487729     -4.08719683870091     -3.52695956740227
  H   10.12483764002776     -3.35328741602585     -1.35910947114231
  H   12.47359523035368     -3.26231277330210     -1.05516310248706
