20
Coordinates from ORCA-job 16254optt
  Br  1.85668809160050      1.16529938323384      1.37073310583818
  C   3.46041888506676      0.68699125062460      0.44329345350016
  C   4.25727026802306      1.65286047732252     -0.07416300171149
  O   4.36766031180649      3.03580119167566      0.13660623101560
  C   5.62880479821679      3.36329630945237     -0.37647647006928
  C   6.08472512988021      2.30580362346838     -1.06871651319936
  N   7.43160917013809      2.26334351495023     -0.92745311726220
  C   7.73038831495143      3.33572745598360     -0.12841285079905
  N   9.00565542647371      3.09434618866633      0.35263493857742
  C   9.08747326761094      1.62620202033502      0.35254297926359
  C   8.03422984252703      1.10285394637085     -0.34125387319347
  N   7.37132691600713     -0.07883904843664     -0.40860833484397
  C   6.02034332106236      0.00028242739379     -0.39583331266148
  C   5.10424221739044     -0.90946060729001      0.11058003431330
  N   3.80261787882302     -0.60444340992141      0.38358977937924
  N   5.32833843903157      1.18127933644015     -0.85788956402604
  N   6.68550008220434      4.05991041199519      0.23051184978642
  H   9.21529843119373      3.53886891055042      1.23310080441837
  H   9.85372606382022      1.13131073626215      0.91962699955008
  H   5.44468314417211     -1.89643411907705      0.39458686212397
