21
Coordinates from ORCA-job 16253optt
  Br  1.82915786256587      1.18085598993293      1.43504460984475
  C   3.23563206456553      0.72910209068107      0.27780324817103
  C   4.06202849117961      1.65177586949754     -0.23485624691720
  O   4.24628763298009      2.98516409327622      0.01684535211862
  C   5.60027127062533      3.25759790285475     -0.35901586473277
  C   6.03106229466053      2.18910767464564     -1.07952364603663
  N   5.07492322514690      1.18215104487393     -1.06437385239162
  C   5.70732774492574      0.00760301891016     -0.61708887080546
  N   4.98517130555636     -0.96700892418301     -0.16524952899544
  C   3.61568323202707     -0.69962002137124      0.04738914969270
  N   2.74594678438971     -1.62337960771354      0.19434866392355
  C   7.13755195589864      0.30874300950880     -0.53474151049759
  C   8.08612417265385     -0.61102660187421     -0.04986889749340
  C   8.90653475563621     -1.39090671363553      0.36629810281211
  C   7.29636591599057      1.72613188812794     -0.68950263340999
  C   7.79590428972170      2.82495287524313      0.14350552054000
  C   6.75548502939974      3.70793857324229      0.39814239613356
  H   3.22542127466958     -2.51717434816200      0.09168925708065
  H   9.62147017827253     -2.08285157405758      0.73742763173839
  H   8.80622960748741      2.94301501043476      0.50917484726475
  H   6.82942091164691      4.60582874976793      0.99455227195997
