26
Coordinates from ORCA-job 16268optt
  Br  0.81980997161340     -0.19225977656653     -0.85879650894662
  C   2.61502146023949      0.13026071248598     -0.30021957542412
  C   3.46224988545968     -0.99369401807305     -0.18236621400756
  O   2.89187529180554     -2.25290566365066     -0.28883122615131
  C   2.22744561709479     -2.75408523384452      0.82752438967820
  C   2.69568898852905     -2.41473357897173      2.19242327417401
  C   2.94711252730360     -3.79117519002180      1.64990847908066
  S   4.59329265703736     -4.32608430612329      1.26311162702267
  O   5.45540692997877     -4.00259286574771      2.37975294478638
  O   4.47369682040754     -5.71180543331476      0.85862257773898
  C   5.28811297761693     -3.40837262341648     -0.16981825158981
  N   5.68347940933057     -2.07533180265193      0.07882926658853
  C   4.84426006098806     -0.92227962540798      0.03134727210717
  C   5.48303064464187      0.28811453434905      0.20909541213381
  S   4.63248889057876      1.78112260708812      0.49089507130556
  C   2.96505381382985      1.48564487795739     -0.12172685118143
  N   2.18800284526211      2.50378219179427     -0.29565361656147
  H   1.16995124217147     -2.91053789624708      0.65527760072445
  H   1.96751437860801     -2.30814870076658      2.98314823918230
  H   3.55156539764151     -1.75259509732954      2.25323783916135
  H   2.39636609838906     -4.64343322366667      2.02527419116608
  H   4.59884630766064     -3.51260305595790     -0.99922730732056
  H   6.16737329897940     -4.03849413894214     -0.33822147155194
  H   6.35705458254086     -2.01512448026314      0.82935860733448
  H   6.56132700447454      0.35915297971211      0.20245397023777
  H   2.68797289781710      3.37017880757660     -0.11539973968758
