22
Coordinates from ORCA-job 16263optt
  Br  2.23249602385617     -0.06131845806328     -1.95251009608204
  C   3.64520542379726     -0.19094861072724     -0.72052276749340
  C   4.20667932906549     -1.40054572944192     -0.35328706878956
  O   3.92915580999623     -2.61664626334509     -0.92104134346214
  C   4.59507698253923     -3.61069754087344     -0.12897618590345
  C   5.69242485975268     -2.88646425927084      0.68854973738336
  C   5.17950740197218     -1.46473743506968      0.61863413405812
  N   5.68598033607711     -0.43971281340539      1.29765643747291
  O   5.11122530057096      0.79755639924287      0.91054131574217
  C   4.11487527654991      0.97551915075032     -0.04225956990810
  O   3.74088137058857      2.11630354437115     -0.20570084524808
  C   7.03699194735567     -2.90458124113431     -0.00887868231807
  O   8.09445699291968     -2.81958607955048      0.55587049550744
  C   6.92524747189420     -3.04266983444086     -1.52415517532450
  N   6.22215687535737     -4.29307372763498     -1.78019234210093
  C   5.11426102391559     -4.66913946803572     -1.09617691832349
  O   4.57780247432749     -5.74891234806540     -1.23662504697505
  H   3.86532625443166     -4.08475173557946      0.52750080998500
  H   5.79756889898189     -3.27119990579646      1.70295586630723
  H   7.92310620548803     -3.09375799785898     -1.95068845197280
  H   6.38458468693745     -2.18994447036894     -1.94437235602018
  H   6.58998905362497     -4.95869117570176     -2.44032194653444
