29
Coordinates from ORCA-job 16261optt
  Br  1.19986720466960      0.42589438845036      0.20922168743566
  C   3.05353997600652      0.14640349924739     -0.03067755920552
  C   3.94502561483901      1.18608646428687      0.17180846882288
  O   3.61766516979490      2.42714459690863      0.55218971274305
  C   4.80486375248294      3.26676108579215      0.49469164449589
  C   5.99435802047158      2.29107849005719      0.30027482342832
  C   5.31281773672794      0.99412374838759     -0.01915833419262
  C   5.79641281843259     -0.24099443571168     -0.39573212858218
  C   4.90161731225070     -1.29340700790640     -0.59464665617498
  C   3.54044031602403     -1.09864790202890     -0.41480058163210
  C   4.60514708594915      4.20646054926013     -0.69233864901788
  N   5.69958699513253      5.15951527698388     -0.71507374264394
  C   5.71001539450897      5.91227589319113      0.54696902874853
  C   5.89451873667004      4.95500662163134      1.71235314423508
  O   4.84553621721755      3.95579261870615      1.68491320948507
  C   5.91255548665974      5.66462059395249      3.03935993230489
  O   6.87042294899177      6.50316617994024      3.22929969477446
  H   6.55854464544869      2.22716110568438      1.23255829280751
  H   6.66481312279478      2.64529978073535     -0.48202710125731
  H   6.85996919868064     -0.39222913805319     -0.53339137485109
  H   5.26384390934741     -2.26772507303207     -0.89422976516391
  H   2.84050769908555     -1.90825829495958     -0.57205369703574
  H   3.62037818043667      4.67544502743143     -0.55037169069035
  H   4.58802563458964      3.61813115192147     -1.61414968049504
  H   5.60429117351247      5.78219949605603     -1.50649898607124
  H   4.77072588264225      6.46036376271737      0.71070926084942
  H   6.54154621229554      6.61507567712928      0.56879315108619
  H   6.85908431562991      4.43393399861830      1.54102650978032
  H   5.47087923870677      5.08332184460257      3.86598138601663
