24
Coordinates from ORCA-job 16266optt
  Br  1.50694611355360      0.02146149831409     -0.30943695599184
  C   3.38976439470011      0.02539425076522     -0.16589194261607
  C   4.08488805581099      1.19764224837395     -0.13403941193189
  O   3.45954042903847      2.41456231897752     -0.20822536587984
  C   4.37955143726270      3.44983534331057     -0.03091730450740
  C   4.03472121741594      4.81599007965806     -0.47568336403996
  C   4.13572288616777      4.49169339688823      0.99926486172728
  S   6.04920871951486      2.81071694906111     -0.26837457486613
  O   6.51809458018911      3.13067377134092     -1.60677946997720
  O   6.91183615978763      3.32077854228634      0.78385982877772
  C   5.49426514581309      1.22595404339559     -0.05653876543173
  C   6.23526391908459     -0.00637594602135     -0.08286374808364
  C   5.52164015612359     -1.18802148879454     -0.11418849195196
  C   4.13614825434246     -1.20372242456579     -0.14029665970578
  O   3.45589200159981     -2.42626805109737     -0.24352017495372
  C   2.83124478168068     -2.89901473406366      0.83756372166270
  O   2.84047559017812     -2.44186791684325      1.93940265924251
  H   3.04636620385582      4.94328991683937     -0.89565381640902
  H   4.82575870867561      5.39253388565313     -0.93725069577442
  H   3.21204748201765      4.39822686842531      1.55342314261077
  H   5.00117441868594      4.83951675160646      1.54689946804364
  H   7.31460347446443     -0.00004560577874     -0.05751428713123
  H   6.04009522358066     -2.13964092287498     -0.11523341275525
  H   2.28775064645629     -3.81131277485619      0.55399475994245
