24
Coordinates from ORCA-job 16269optt
  Br  2.72351590385172     -0.94070247589956     -2.16966632570677
  C   3.66437543725451     -0.56479446170560     -0.56665400226144
  C   4.36343338745758     -1.47994096883739      0.12064041575573
  O   4.76906534910906     -2.75474714252267     -0.34913517468670
  C   6.21357198343714     -2.49002096556233     -0.28527626943982
  C   7.61610440701943     -3.19048709850425     -0.46320652407527
  C   8.38186564211665     -1.90868500283663     -0.03286977809474
  C   8.88957675585057     -0.86778441221826     -0.79207136682272
  C   8.30084007397350      0.36546277497631     -0.36343735987052
  C   7.33942586797181      0.04283599556773      0.59493084948005
  N   7.59790250207979     -1.27090951304323      0.95155179331276
  C   6.35968580321100     -1.96907484411405      1.12157073209599
  C   5.27787522132364     -0.95442557521379      1.13751274672765
  C   5.91915075709255      0.31281978880303      0.83096597598439
  C   5.14591881733458      1.27722268647743      0.12919720182952
  O   5.43760013837900      2.41482315156847     -0.23032174662336
  N   3.83120738344365      0.77383943396515     -0.20902601266673
  H   6.32344633561428     -1.63359025459732     -0.95732206444711
  H   7.86932553482868     -3.47183757553700     -1.48329230496006
  H   7.74850547856775     -4.04480236106481      0.20286602073916
  H   9.53833404902655     -0.97137109156186     -1.65053680009636
  H   8.43213867490072      1.32951447669593     -0.82628480805383
  H   6.37736269638730     -2.75645809583305      1.87908891203010
  H   3.28277179976849      1.45411353099777     -0.71222411014992
