24
Coordinates from ORCA-job 16267optt
  Br  0.90302819174179     -0.43991825889537     -0.04148556650885
  C   2.77406851208203     -0.25192823227740      0.04745924839933
  C   3.57574066424532     -1.25563499153236     -0.38303508394595
  O   3.12919125740462     -2.39219406266072     -0.93143681375101
  C   2.56996778783161     -3.40166031350182     -0.11505090353701
  C   2.44485115395945     -3.30647305225881      1.35718296029729
  C   3.42731185070435     -4.27164892740414      0.74817087859186
  S   5.20729664897885     -3.96541768556754      0.96289797571264
  O   5.27431028589421     -2.93173591085499      1.98007378216818
  O   5.70745052396724     -5.29610090174940      1.25373458146557
  C   5.86751730571898     -3.41250829237460     -0.47497963072261
  C   5.84857752857391     -2.07567614020283     -0.90548218158653
  N   4.94428211140318     -1.10311797394197     -0.36052184493367
  C   5.41516179823252      0.05961310536690      0.16312154825595
  N   4.71798040166362      1.06573026869507      0.56763469138898
  C   3.32620116091180      1.01143799212725      0.53440993803284
  O   2.63389039021926      1.94816577794011      0.88497476060285
  H   1.77302060889971     -3.88025750616660     -0.66584291045462
  H   1.53444727039776     -3.67180953426572      1.81292845399894
  H   2.90896447009619     -2.46284400976343      1.85338005711412
  H   3.22868980158552     -5.33415183321293      0.74545902904402
  H   6.28884478115610     -4.19368792662876     -1.08885733462254
  H   6.27928100648518     -1.79368675813978     -1.85483133081826
  H   6.49792448784670      0.09550516726994      0.21109569580846
