25
Coordinates from ORCA-job 16270opt
  Br  0.38324772773041      0.69378257653044      1.34642129068991
  C   2.19099888710431      0.64096354248582      0.78713652948295
  C   2.78712689097416     -0.50833531200482      0.37500155951463
  O   2.20104512345436     -1.74303445389004      0.30328566982637
  C   3.14967159111228     -2.65526773630571     -0.22300871293218
  C   4.49505913684426     -1.89920482611497     -0.44184071147212
  C   5.40765054550725     -2.67458108306255      0.55054540837875
  C   5.67110722999280     -4.06896015249401     -0.01487840043886
  O   4.37504277922959     -4.66777078386332      0.09835796780503
  C   3.58906719496180     -3.70514647318201      0.81578032844649
  O   4.51291556304408     -3.01867350024663      1.61559829154454
  C   2.53477252728388     -4.35480569311004      1.58080710222839
  C   1.63518297587024     -4.87879519919387      2.16888971058470
  C   4.11978622306326     -0.52260705021614     -0.05776488817542
  C   4.79376565451648      0.73567753711867     -0.14163105008643
  N   4.22727064578595      1.86203355194570      0.25230168790228
  C   2.97848823177971      1.85544669625336      0.74126260760602
  H   2.73678404396238     -3.14408189860046     -1.10571470828474
  H   4.89179092778534     -2.01819371276111     -1.46459273624191
  H   6.25938761948652     -2.12137658202312      0.93301532880609
  H   6.38779213765605     -4.63998357808845      0.57870182651046
  H   5.97576005872701     -4.04978000378239     -1.06359052150786
  H   0.83132215822049     -5.33099903120684      2.69695358645889
  H   5.80935302767122      0.80097201495156     -0.52349285793963
  H   2.54861109823610      2.79172115086096      1.07045569129363
