25
Coordinates from ORCA-job 16271optt
  Br  1.21863279173562     -0.11726504129354     -1.02673825396668
  C   2.99882039317723     -0.25489770186619     -0.43701117552327
  C   3.71309666685513     -1.40327346032927     -0.37514037625256
  O   3.30905859909027     -2.66932079337108     -0.71346311444043
  C   4.45279475244994     -3.52061192364537     -0.58769174005008
  C   5.63621475674287     -2.69077665794218     -0.02391720125017
  C   6.79936167725823     -2.80799253480864     -1.02530331245878
  C   7.11360715733104     -4.28588469216737     -1.20969795090234
  O   5.96194202362828     -4.95466722381985     -1.73937909769313
  C   4.88014325585300     -4.06750229658395     -1.94932697674453
  O   5.22637478056659     -3.04465712196096     -2.83362724166874
  C   6.34283464606562     -2.27080993341915     -2.37353648934171
  C   5.02749588452346     -1.33054116229051      0.06154081464797
  N   5.68239548314991     -0.18104328027821      0.36040140298686
  C   4.99369189762378      0.95753545383361      0.30719870377308
  O   5.37583957637731      2.08418964243412      0.52745501780385
  O   3.57635077680740      0.91126286228231     -0.04885477774374
  H   4.17741941168825     -4.36223902483367      0.05029326841437
  H   5.97621043647595     -3.07279256682607      0.94732688185717
  H   7.66712380267161     -2.25192156448762     -0.67025279131936
  H   7.37962565614738     -4.75477575643001     -0.25692951091550
  H   7.93896075585742     -4.43198890918167     -1.91339786928150
  H   4.08679280197645     -4.63706430837000     -2.42911033912189
  H   6.03983906191652     -1.22596131145045     -2.29523898583060
  H   7.14137295403061     -2.36200069319422     -3.11659888497828
