21
Coordinates from ORCA-job 16277opt
  Br  0.78543166443711     -1.72298631969136      0.98034709626347
  C   2.26278807408522     -0.83713794430431      0.22308794231801
  C   2.22512525401659      0.50860705892730     -0.00548127636022
  O   1.16410689359386      1.23878590107258      0.35861654245972
  C   1.23164004728967      2.60131086549267      0.21949141690661
  C   2.35121579190254      3.24922609603401     -0.25427070323562
  C   3.47326956120061      2.48661405939088     -0.67727424702342
  C   3.37823550814606      1.13738865670349     -0.59655662613266
  N   4.29049226452635      0.21265728650147     -1.16665393965203
  N   4.54752192863678     -0.98544024939856     -0.54371853618226
  C   3.54791927686979     -1.50675504308714      0.07952723610039
  C   3.77514804576209     -2.78944964860880      0.68544990688668
  C   3.95178973731184     -3.85712771625244      1.20133028377531
  C   1.98455586040678      4.66119342662682     -0.21877546857035
  O   2.65553608123259      5.65974733339104     -0.54693968010711
  C   0.61794544392947      4.61823541384350      0.30290142105120
  N   0.18681006633091      3.37721187771591      0.55765755454778
  H   4.34954435600928      2.96489499632389     -1.10138896602515
  H   5.15397086092862      0.63193344220671     -1.47479595493097
  H   4.10721745309578     -4.80414632212452      1.65759074119937
  H   -0.00526416971212      5.48323682923675      0.48385525671125
