27
Coordinates from ORCA-job 16279optt
  Br  1.41711481008962     -0.00616174295404      2.86366514606188
  C   3.07453435038362      0.29099891778394      1.96354935427022
  C   3.64514454715197     -0.65668512493727      1.14804885184562
  O   2.89281180960887     -1.69459098571417      0.65725175246528
  C   2.78284056957952     -2.85357139006690      1.48708015545079
  C   3.25235179826872     -4.11401567953926      0.73195676634912
  C   4.60659036012377     -4.03551042516619      1.48655471581671
  C   3.92910480980630     -3.07779542832539      2.49310439034605
  C   5.76440349474693     -3.46349507818031      0.66103629019134
  O   5.33742060773171     -2.69653605123413     -0.44401374245822
  C   5.57379009123318     -1.30006815053609     -0.38485004695108
  C   5.00710612132322     -0.56393295726054      0.80265663249007
  N   5.86643961642488      0.31634119272512      1.39877351194465
  S   5.38074322806191      0.90407569930416      2.77093996346930
  O   5.26454965351724     -0.08280754269730      3.81386106139983
  O   6.01371187888258      2.14316619736322      3.08860311732127
  O   3.79865146454322      1.33210201808534      2.43858290053375
  H   1.77262569415541     -2.87030562538331      1.89797594552010
  H   3.28398926191553     -4.01268347449254     -0.35058283220449
  H   2.67350237348044     -4.99300665730634      1.01821897972996
  H   4.94842042875603     -4.97449361328031      1.92772351323709
  H   4.48474662363012     -2.21123549717674      2.85083314807212
  H   3.54651433267054     -3.62641936383528      3.35487569108093
  H   6.34560380914851     -4.29636989468935      0.25086133644709
  H   6.42581093839454     -2.87533040639208      1.30788473049752
  H   5.14175459030064     -0.91772935377727     -1.31394913314333
  H   6.64972273607091     -1.09493958231692     -0.39464219978362
