27
Coordinates from ORCA-job 16281optt
  Br  0.85695299646654      0.07968600244702      0.42536059594901
  C   2.75712097856465      0.07315625362132      0.17498518096583
  C   3.36200667121263      1.25648777628477     -0.17562941220544
  O   2.71329734814075      2.47437631168478     -0.07330350163814
  C   3.48863263343851      3.58381463649508     -0.46130600577758
  C   4.84984022209599      3.57673084809627      0.25975584131997
  C   5.26086876943546      2.56373592924221     -0.84261356132137
  C   4.23416422211912      3.23783159661791     -1.78145315666529
  N   4.78465764484579      4.39904079501873     -2.44613548908461
  C   3.99517332007172      5.33750948714916     -3.04087161472340
  N   4.32455613917310      6.26905154115195     -3.84405799273818
  N   4.72215611064300      1.24749480262639     -0.55861722011660
  S   5.71128288387280      0.25274310060426      0.48513966223519
  O   5.66497273330505      0.90570037508767      1.77929635233202
  O   7.01447791326695      0.18199231831488     -0.14261432453009
  C   4.86156434669706     -1.18319066297896      0.39147864199369
  C   3.45431030394413     -1.12577517933114      0.32485887647792
  H   2.84221342526036      4.45857356254082     -0.42268735428041
  H   4.86968482140011      3.20779328980183      1.28169047883746
  H   5.36446010791686      4.52966405788325      0.15759192596417
  H   6.30095521945982      2.47156918737255     -1.15375668793560
  H   3.70576585134532      2.56289845524422     -2.45961124355850
  H   5.73760139067856      4.32799794203297     -2.77244747110003
  H   2.94777966270746      5.25453830122219     -2.74754809002406
  H   5.32515024562724      6.24280720259942     -4.04627094639450
  H   5.45092789922975     -2.05169489168821      0.14679749835391
  H   2.89342613908114     -2.05153303914138      0.32096901766465
