26
Coordinates from ORCA-job 16288optt
  Br  2.04233042644703     -1.92585969949804      1.92546814968316
  C   3.27197420385034     -0.58985318686156      0.20067154941111
  C   3.99500350903510      0.55596333936186      0.33580401717848
  O   3.47411191842769      1.46534362929466      1.30338605589547
  C   4.40350168069224      2.48252177225659      1.27535684218283
  C   5.76843732615802      2.07795829607391      1.87106102081902
  C   6.48967419847342      2.83185077698378      0.79108679145769
  C   6.28115240798177      1.93009357818993     -0.47305865720110
  C   5.18818053561046      0.77263746633788     -0.48817966226142
  C   5.41647779854356     -0.19316412493258     -1.45800259569114
  Br  6.86079937316682     -0.09926779156564     -2.69573136018970
  C   4.61776873860869     -1.37991900694545     -1.66504374622342
  O   4.78441225767642     -2.24213401658121     -2.52083150953950
  N   3.59671348013444     -1.48359929235960     -0.73818733040832
  N   5.75394129600078      4.15717198644606      0.84907118463528
  C   4.48312843917276      3.97181439436916      1.48936398980628
  N   3.70066765373635      4.82644264488081      1.98450762604152
  H   4.52339428943891      2.61328475529779      0.20329613460722
  H   5.92839178394207      1.00400117784589      1.87774745284020
  H   5.90138017688892      2.49001804852146      2.87226326392564
  H   7.55172307788185      3.03673570895514      0.92314824684386
  H   7.23163316644321      1.42432421430037     -0.63186618826657
  H   6.11992851282699      2.54289772978427     -1.36337619928746
  H   3.05576742349893     -2.34105783944231     -0.77861448888387
  H   6.30609885666107      4.91016024739752      1.23381104839651
  H   4.08940746870188      5.76663519188920      1.90584836422819
