22
Coordinates from ORCA-job 16298optt
  Br  2.34633338528213     -2.16267791537189      0.87938296594112
  C   3.55199186966013     -0.83586638462250      0.33101793213338
  C   3.35469799987569      0.47412130261970      0.56167416821168
  O   2.26988556695843      0.90301591623097      1.25169402291940
  C   1.45401727643871      1.74641763538508      0.49623169741134
  C   0.11332156331834      1.59706557181920      0.29633716277570
  C   -0.31931362555387      2.73717956320611     -0.48113723168085
  C   0.75708274827055      3.54996629015508     -0.73066461943981
  C   1.92501447131252      2.96447939061906     -0.12172783544159
  N   3.13014240906902      3.52743724405546     -0.08475777982556
  C   4.24574098730031      2.88474253778031      0.32095119447868
  N   5.26687841440638      3.53208008802818      0.78453377143249
  C   4.36293458608532      1.39163246673394      0.09221971894519
  C   5.43674078266338      0.89716105443664     -0.57207485496376
  C   5.62929357434519     -0.51118736282601     -0.80110726366136
  O   6.54421046752554     -1.05265796843820     -1.36098255573189
  O   4.62465514406619     -1.33118914853976     -0.29170465613374
  H   -0.49976707414211      0.78654115354442      0.65992530324345
  H   -1.33466603401872      2.90223463460540     -0.81200097115642
  H   0.77314766336362      4.47595999910392     -1.28481865201637
  H   6.02003828464394      2.88278564290525      0.99550773997446
  H   6.20561953912928      1.55275828856961     -0.95449925741554
