23
Coordinates from ORCA-job 16293optt
  Br  1.42543455598627      1.13677057386206     -0.31258634458860
  C   3.05335434724280      0.18974597277422     -0.55442057434504
  C   3.11768709009755     -1.18210229244135     -0.30595698446238
  O   2.00273640869231     -1.98536345218186     -0.36480566597160
  C   2.34256831050059     -3.27304727177903      0.15936146523563
  C   1.88176132182297     -4.36981012133935     -0.80907535687966
  C   3.16364953843772     -4.76083492216368     -1.51277880004003
  C   4.24337819833147     -4.20988818575598     -0.95576482466004
  C   3.88816345724231     -3.33258674482158      0.21053508955625
  C   4.26972835225221     -1.89073801373599      0.01168645754048
  N   5.51581761361870     -1.44283906003013      0.07337369652023
  N   5.59733227873503     -0.13477491568491     -0.42686354724149
  S   4.46192425974812      1.02503022164625      0.00960466442728
  O   4.43299405804278      1.21487902443218      1.44175989150265
  O   4.78486623529452      2.18949448657808     -0.77527954702581
  C   3.17859871246675     -5.65895798499131     -2.62170095953896
  N   3.15366459748949     -6.41146279781592     -3.49045025655416
  H   1.88053842950850     -3.36624235036540      1.14339330965996
  H   1.13060252418748     -3.98075583627489     -1.49704517287251
  H   1.44807436943120     -5.22517753916985     -0.28522016489484
  H   5.26055460433503     -4.33787545968758     -1.30091913193509
  H   4.28416173230965     -3.73736846711168      1.14609495651124
  H   6.51640900422647      0.25690513605777     -0.25394219994347
