27
Coordinates from ORCA-job 16307optt
  Br  1.32245130611192      1.16805725811182      1.34655186998543
  C   2.91045412313080      0.63057868312989      0.48212595005657
  C   3.18518459062299     -0.72836197875430      0.23577488870011
  O   2.27435965614039     -1.61608916829853      0.75491919984295
  C   2.14566592074378     -2.94056806909829      0.27649344127632
  C   2.97705136126808     -3.91584899254329      1.13297980590724
  C   4.36039585550072     -3.39946448877990      1.52638055981168
  C   5.34890869992470     -3.26255678505910      0.37534774288220
  C   4.82882979634892     -2.43636775085179     -0.82117915795167
  C   4.35042454890260     -1.04897436192568     -0.45243319203189
  N   5.22296966219370     -0.13003345576781     -0.89298514091436
  O   4.96015067870108      1.20503774656793     -0.56119765569248
  C   3.81320939090621      1.64134941540579      0.08222594208360
  O   3.71579995334534      2.84300653078355      0.23616675063094
  C   3.82270820870102     -3.26854867667532     -1.58642529832986
  O   4.17090274176231     -4.08914764595028     -2.40263395350966
  C   2.36962449650706     -3.07756985206737     -1.23059658757222
  H   1.09312376457667     -3.17280737280987      0.45313529309001
  H   3.05692847450464     -4.87133572350706      0.60073877621604
  H   2.41575237391892     -4.10934360799245      2.04936082207842
  H   4.78422662730562     -4.07578661960543      2.27345980871840
  H   4.23710783024572     -2.43050582209452      2.01422537139330
  H   5.63639802224974     -4.25125181343100      0.00327020403002
  H   6.25439623642015     -2.77114135977668      0.73671031076397
  H   5.66897274109516     -2.28914039276124     -1.50037634666129
  H   1.81323800258245     -3.93301383259791     -1.61449303042097
  H   2.00076493628924     -2.17317186365113     -1.72254637438276
