21
Coordinates from ORCA-job 16305optt
  Br  1.45036098121769     -0.12135368296268     -0.87667177150726
  C   3.15528224876592      0.05489417174983     -0.00092679907687
  C   3.51196971686749      1.24344321653291      0.58118897275903
  O   3.00311262112737      2.55398354882511      0.42632984732632
  C   4.10968719904636      3.40700594642791      0.52528195586965
  C   4.38873248772481      4.64255090690420     -0.03826649342924
  C   5.75793597406532      4.94521996630303     -0.21166805402473
  C   6.81562884898135      4.03330741284946     -0.01712115605851
  C   6.48903792080072      2.79079750897601      0.52776478444063
  C   5.18112351649372      2.66628323547867      0.97490480247857
  C   4.81502177836061      1.33284939716084      1.08069525847098
  C   5.88392442187922      0.57072670504388      0.59150978239293
  N   6.98708105677852      1.46249340060221      0.46732651798060
  C   5.53228812935528     -0.63636809333885      0.03284518846982
  Br  6.91788886613311     -1.65371755936137     -0.87286684076058
  C   4.16288278965789     -0.93317489947829     -0.12505885956308
  Br  3.60538845357171     -2.85561716386544      0.03247526140865
  H   3.62970239397911      5.30456019014895     -0.43131552165073
  H   6.00406868295484      5.90935019414066     -0.64005079942857
  H   7.80149314196956      4.27623188578349     -0.39219320667901
  H   7.79038877026935      1.20553371207944     -0.08318286941859
