27
Coordinates from ORCA-job 16317optt
  Br  1.16676256318041      0.15157396075393      1.11898426194196
  C   2.96654153184052      0.02674074919081      0.53562886452598
  C   3.62576067758236      1.16223703019837      0.12585655666133
  O   2.91952807448212      2.35134351758598      0.12591827805957
  C   3.59535520716020      3.51515015831472     -0.22406494160333
  C   4.55453645620493      3.29704108704780     -1.37417832314368
  C   5.62828921967260      2.35628494071613     -0.84380011936921
  C   6.41097423219455      3.13230726169412      0.22189006337740
  C   5.51011548227887      3.75096878676248      1.27111650123205
  N   5.86083453884187      4.07802197354800      2.43976232606138
  O   4.25241102232125      4.09666255059023      0.90418720004340
  C   4.96928037150397      1.13009909781336     -0.28936022678118
  C   5.64030592724652     -0.12424412871483     -0.22210032418417
  C   5.00355607980603     -1.25803325913729      0.19195917978694
  C   3.62860995866295     -1.25799028189987      0.57795732404514
  C   2.99941249982824     -2.44801239727827      0.94715216760879
  C   2.47904600953913     -3.51605679150771      1.21962968794800
  H   2.81357050934587      4.23616000938067     -0.45515495609436
  H   4.96526803200845      4.25817452607686     -1.69084638001285
  H   4.00751866329362      2.84745413283536     -2.20305762595283
  H   6.32196243521285      2.07737299639536     -1.64502739601110
  H   6.97644876585887      3.95392704854466     -0.23877654231679
  H   7.12003045560244      2.47618579660513      0.72644400083695
  H   6.82625442221930      3.79819182774212      2.58894860702412
  H   6.68302526703883     -0.17327841716259     -0.52209292599944
  H   5.53626613995702     -2.20064014427664      0.22550281496029
  H   2.06033545711592     -4.39964203181893      1.63452192735566
