24
Coordinates from ORCA-job 16319optt
  Br  1.07244223240175     -0.70877903265596     -0.89204237962877
  C   2.87568202784727     -0.43627437577577     -0.42252161900135
  C   3.76266029813169     -1.45524929254305     -0.29454882222285
  O   3.41374451318399     -2.79259864697663     -0.35629576195533
  C   4.60499746066203     -3.54774716686721     -0.31078182308839
  C   5.75785819078412     -2.61844642614408      0.15173265981505
  C   7.05199117047358     -2.80351802724345     -0.64172538458914
  C   7.36100562987431     -4.28763027137088     -0.82539866680399
  C   6.29138639390499     -4.92996167176724     -1.67793320979932
  O   6.45731245905164     -5.90869604827918     -2.35267435710628
  C   4.90482117625991     -4.22274993250812     -1.63821028030833
  O   4.16669808393439     -4.27688864672281     -2.57707243316746
  C   5.12229512767781     -1.27377829602960     -0.02824332333337
  N   5.80917169937794     -0.13670545282194      0.14095901901299
  C   5.19834140842379      1.05841839489718      0.05904182446232
  N   5.73331155184544      2.22005212434955      0.18340080685017
  S   3.39920029934784      1.22560433604731     -0.24521079928388
  H   4.45500953266570     -4.37150608091691      0.40076399543464
  H   5.98364648683482     -2.80893114840030      1.21217341805455
  H   7.86272400167148     -2.28386050278985     -0.13303297795928
  H   6.93880226189915     -2.32374765874142     -1.61879343235479
  H   7.35307546702940     -4.79351014847777      0.14861015982164
  H   8.32911042981010     -4.48645260063940     -1.28633178839130
  H   6.72771209690677      2.07695657237758      0.35813517554251
