25
Coordinates from ORCA-job 16315optt
  Br  1.26133534487639      0.06437364980288     -1.17167920192059
  C   2.78036623322451     -0.17195060221499      0.06435977705493
  C   3.44169701804511     -1.39050452345959      0.02113521981922
  O   2.65366905340727     -2.52887857370851     -0.20488318150763
  C   3.43948502591846     -3.60561158370862     -0.59719688649887
  C   2.75326615896680     -4.95669758001312     -0.54989677516255
  C   3.93460736817541     -5.95433793171084     -0.44281971287992
  C   5.19125751938852     -5.09964101179683     -0.07596489443048
  C   6.05184991172255     -5.75193137854940      0.90385867964605
  N   6.70217434916986     -6.30336023841643      1.67056263149977
  C   4.58816721566101     -3.77227139733536      0.37581742107209
  O   5.46765984910719     -2.69641472501032      0.30768668187255
  C   4.83337147020431     -1.46157543291821      0.18656512047666
  N   5.70285091241542     -0.47225149424488      0.22651563141605
  C   5.34152323112458      0.82654624073236      0.24626648318385
  N   6.11853034561824      1.84333102111483      0.16610732372911
  S   3.60813733599290      1.26631298011977      0.53254677155439
  H   3.87058195468657     -3.41866196752820     -1.59384024276917
  H   2.12026321168945     -5.14507010848413     -1.41446553809848
  H   2.12629117100948     -4.99358488166372      0.34217072330184
  H   4.10966794666343     -6.47980124709719     -1.37977127210230
  H   3.75221724530585     -6.70781881728516      0.32091088793933
  H   5.79474653599809     -4.89709304718524     -0.96328958954112
  H   4.16845091533013     -3.87012798603673      1.38717028605665
  H   7.07483267629837      1.49402063659766      0.10013365628862
