21
Coordinates from ORCA-job 16312optt
  Br  1.60033922964028      0.89352398466523      1.33749567329340
  C   3.23933785783562      0.58298781906230      0.48168567166566
  C   4.13834045612721      1.56173672769390      0.29375371040461
  O   4.02407470442935      2.91446723179740      0.59498551772339
  C   5.14911626880941      3.43650094856687      0.05181291384951
  C   5.97695373197139      2.52309118501115     -0.47640066795173
  C   7.20145165132549      3.21834746593555     -0.72055978854659
  C   6.97145497886647      4.49280997017901     -0.29446977241155
  C   7.76757322962216      5.75236712183297     -0.36939899944027
  C   9.14435093024567      5.50469349590877     -0.78789629861320
  C   10.27040579025008      5.29339406712120     -1.13427057219591
  O   5.70009100346761      4.64182023722623      0.22475223302872
  N   5.34266118325263      1.30766016862521     -0.29973578666604
  N   5.70509388532590      0.06684488936695     -0.85522578272163
  N   4.84217091518914     -0.92288511388317     -0.59697380255707
  C   3.65386958752507     -0.78440866830062      0.04637078454231
  O   2.90902757001304     -1.74062194239479      0.27085262881430
  H   8.11871032496471      2.85963654822548     -1.15357357599312
  H   7.77059262793386      6.24440397297181      0.60753303582360
  H   7.30447902204150      6.45431636460725     -1.07113099020838
  H   11.26990505116330      5.09331352578122     -1.43660613183999
