23
Coordinates from ORCA-job 16325optt
  Br  1.13760439292280      0.52217131410421      0.15098746485349
  C   3.14794784876747      0.14743547571143     -0.66601218720106
  C   3.90794962179053      1.27594741768491     -0.84053001320709
  O   3.37664098891414      2.41852255929007     -1.44365735684892
  C   3.30771436681355      3.44874138364578     -0.58339865319991
  C   2.24369314247541      4.17683522947423     -0.15795538029188
  C   2.75762945224344      5.17877502547375      0.72153620953949
  C   4.10677052276187      5.02806035762405      0.79645912231594
  N   4.46633220956269      3.95470281123307     -0.00700762751096
  C   5.79744336313764      3.63091988134252     -0.33063948834412
  N   6.76275671496958      4.44258077291507     -0.30661992416016
  O   6.05745217999331      2.36249460806195     -0.68507284309789
  C   5.22489313203933      1.29241638642053     -0.38304375917747
  C   5.76813714379605      0.22662668768134      0.27406515050230
  C   4.97599565965378     -0.95561641643726      0.46557590405851
  N   5.27708371549687     -2.04871435277375      1.05185450694899
  O   3.70844836363746     -0.93178672488893     -0.10114302622535
  H   1.22031474597139      3.96390508819634     -0.41248214106627
  H   2.18142078186595      5.90290904791479      1.27346542525365
  H   4.84780368996094      5.53857923968657      1.38627120597965
  H   6.42949782601194      5.38441774329197     -0.13390452199039
  H   6.78947648983482      0.24963618798834      0.62030939788382
  H   6.22399364737891     -1.97755972364103      1.41194253498563
