25
Coordinates from ORCA-job 16338optt
  Br  1.48407306905823     -0.42929244639348     -0.41089631586896
  C   3.34447525012758     -0.29012073596273     -0.08881732885243
  C   3.90875788935512      0.98000394058909      0.07025852431094
  O   3.11126469383167      2.04736805619094     -0.00042402686332
  C   3.74522894035572      3.33398437915504      0.10100914787422
  C   4.80634296991650      3.31049442073718      1.19588481966478
  C   5.87504464739752      2.44901153296555      0.51399695007626
  C   5.92152516461944      3.17074474129830     -0.85498101609060
  O   4.57753432450058      3.44131286614072     -1.13738793562267
  C   7.17599392653126      2.43033744505986      1.16886672965643
  N   8.21218836313889      2.42184037135030      1.66279225414514
  C   5.29243785840473      1.05816965336382      0.33164688861016
  C   6.04908570651460     -0.09970263503711      0.40539594589817
  C   5.47122677578314     -1.34933570985570      0.22850301013340
  C   4.10898748301747     -1.44035021652250     -0.01843069523489
  C   2.71587115424079      4.36647123608564      0.24957809130974
  O   3.03877072832417      5.53985898008239      0.63383000745771
  H   4.41646248841259      2.87707861410409      2.11386626540729
  H   5.13524045869210      4.33482383433231      1.36484432879307
  H   6.35982491033257      2.53229902601653     -1.62655685979887
  H   6.50735542509494      4.09417965018706     -0.76659294533421
  H   7.10857329631410     -0.01801030593430      0.61815062160015
  H   6.07298240033431     -2.24597006537896      0.28859781933345
  H   3.63056633968632     -2.40043240513278     -0.15711282994743
  H   1.72618573601555      4.10723577255869     -0.14602145065755
