24
Coordinates from ORCA-job 16334optt
  Br  1.45358602580926     -0.11126737060666      0.93890122116943
  C   3.18559281467902     -0.14483104494863      0.14775134781088
  C   4.01159206683252      0.93958277093762      0.29340797752258
  O   3.45638279952495      2.00595911887664      1.05642655085829
  C   4.44980033019638      2.95355818327127      0.88691797023806
  C   5.70870904340281      2.69571226898155      1.70950741818296
  C   6.50846374466902      3.25784505073758      0.55573378879822
  C   5.68854940895572      4.58755776867173      0.41597286102192
  N   6.02972333555361      5.72501048813075      0.01266807501473
  O   4.39959231883544      4.39490635052688      0.93432087884460
  C   6.35334990135601      2.10579642560007     -0.53724708197699
  O   7.16092612023291      2.12167112617963     -1.46773311937057
  C   5.37477692537342      0.97786411838736     -0.33775259150406
  C   5.71452257080713     -0.29686031621597     -0.91306003061536
  Br  7.53387078842819     -0.75077062556453     -1.33314963102048
  C   4.84859327087739     -1.35880336520456     -1.04207818965745
  C   3.54911277514837     -1.29845871299584     -0.55413056248527
  H   4.62138023848254      2.86045409844886     -0.16889680496638
  H   5.91192529769147      1.65653633959367      1.93809138807503
  H   5.68817015264131      3.31309801144974      2.60808042831032
  H   7.56786430351462      3.48132916330387      0.66576204816334
  H   6.99144922286709      5.68112037513981     -0.31631325599822
  H   5.20822711226231     -2.27369672655565     -1.49373265922036
  H   2.85483943185846     -2.11631349614520     -0.66744802719521
