23
Coordinates from ORCA-job 16335optt
  Br  0.90164801972023      0.15472866042179     -0.13288005448275
  C   2.76826345025264      0.21714383105670      0.07209764293575
  C   3.42282914650670      1.37585574742730      0.14917782117179
  O   2.91852748805771      2.64079211972007      0.03719997793599
  C   3.99632890918156      3.54773762664444      0.03802910853270
  C   5.26397852493744      2.69854566902169     -0.12538706669986
  C   6.44776599426207      3.23180274042046      0.67863922348253
  C   6.35683516765799      4.72226324708862      0.81901516891456
  N   7.20208731324938      5.60947993473342      0.54257343786392
  O   5.18089988321987      5.15126621463494      1.39314982601830
  C   4.03733519740205      4.39354565523274      1.29949390433447
  O   3.17347351891514      4.52361846676572      2.10001804736424
  N   4.78314986978452      1.44385707028173      0.38042378908265
  N   5.62721153136219      0.34725073379224      0.15885022721542
  C   4.96097018044219     -0.82685125111024      0.15906860370744
  C   3.56411478475009     -1.04767003392869      0.15501590402853
  O   3.00689244863239     -2.16690152126642      0.16093728352535
  H   3.87615803364637      4.25221485560917     -0.79139846529768
  H   5.53826475318569      2.61886423997757     -1.18778454133437
  H   7.39359863944622      2.94019981809506      0.22985026404837
  H   6.38682155316048      2.78771660805953      1.67595019574104
  H   8.04207106561355      5.17273268667189      0.17274664778147
  H   5.59177452661343     -1.70519311934979      0.09421305413014
