23
Coordinates from ORCA-job 16336optt
  Br  0.90134882572728      0.01952438168538      0.97577790348680
  C   2.96441951550353     -0.23136870498701     -0.22582807635207
  C   3.71275582476030     -1.38519076194530     -0.18486505753238
  O   3.02008198600329     -2.60580761459134     -0.20307435536818
  C   3.81711881563531     -3.65382671339171     -0.13691345150156
  C   5.16620444004882     -3.73098513760280     -0.08580871769519
  C   5.45457373135414     -5.13543147490630     -0.03659480441882
  C   4.26226892618663     -5.76917067083967     -0.05834244208065
  O   3.23811086837971     -4.86196200599664     -0.12053102560934
  C   6.01994428990509     -2.50322721583743     -0.11483158288608
  C   6.95400419836487     -2.51216463354600     -1.24729263615573
  C   7.71777820465401     -2.56394247763833     -2.16888748138406
  C   5.11076728922404     -1.26647363024066     -0.14029987698427
  N   5.74484400641508     -0.11817649262490     -0.09519758331100
  C   5.03018343896724      1.05163856395907     -0.11373790441701
  N   5.51124066488127      2.24149263464259     -0.06254488109937
  N   3.63604176535506      0.92030420154087     -0.20673422202909
  H   6.42520795235450     -5.60177340734288     -0.00120782673541
  H   3.96803802714969     -6.80246040726520     -0.03938129268037
  H   6.62202654578927     -2.41502099208713      0.79626644826661
  H   8.38446675102659     -2.58785726584291     -2.99580430478326
  H   6.52226604284222      2.16674849005164     -0.00671203408769
  H   3.11630788947195      1.78813133480673     -0.19145479464188
