24
Coordinates from ORCA-job 16332optt
  Br  0.90431871387693      0.30789014092931     -0.70246260711518
  C   2.80740303174899      0.20065148718087     -0.82936637041734
  C   3.43146379020267     -1.01469713195295     -0.33593677581299
  O   2.87320614954604     -2.23882266183515     -1.01747574916801
  C   2.35502721505327     -2.85492405075247      0.21008811991402
  C   2.90844657301861     -4.22122814453245      0.71586740275122
  C   4.16947109497975     -3.85945987961404      1.62713907037470
  C   5.13422051011152     -4.94833508284337      1.70968030156376
  N   5.90437453211156     -5.79889674773069      1.76305099960802
  C   4.55958921272614     -2.66478673270280      0.78601401224921
  N   5.47353464905462     -1.55193943300529      0.75479884758336
  C   4.90466356604223     -0.71398107504701     -0.17574791295447
  N   5.54014431892932      0.28859134430832     -0.72513227308726
  C   4.77094393190322      1.18509214451231     -1.36363821748139
  N   3.43216152256535      1.20776293978964     -1.36311800004286
  C   3.13692210077861     -1.84197985117109      1.02374240512971
  O   2.90952870610969     -1.40617676562319      2.18235886618038
  H   1.26708155809855     -2.80869410989068      0.20123562292255
  H   3.23640184742615     -4.86648687802037     -0.10145151885356
  H   2.14947300129836     -4.75132109476836      1.29027545348938
  H   3.85369608473822     -3.56141867218526      2.62841912255615
  H   4.60150670396902     -3.09375446844476     -0.21113842614369
  H   6.47854640007976     -1.60306478968057      0.81615719493224
  H   5.27287478563131      1.99097951308010     -1.88235956817796
