21
Coordinates from ORCA-job 16339optt
  Br  1.13348663889539     -0.49294464618095      0.04966706410934
  C   3.01097681427067     -0.29337230854253      0.05007141459362
  C   3.81806154092930     -1.39560594626282      0.05009249961483
  O   3.19853938620846     -2.65115641618534      0.04986454865980
  C   4.05849033497136     -3.65279362061898      0.04991929014289
  C   5.43314064231641     -3.56270905374299      0.05014624357481
  C   5.85889738255917     -4.91334143917733      0.05012765281313
  C   4.73035528425210     -5.69714288734202      0.04983276461736
  O   3.60115038934444     -4.88818169403587      0.04974806332489
  C   4.48985122964490     -7.10845217293642      0.04967474535158
  O   5.35141224342181     -7.96729636025272      0.04977004497134
  N   6.09292365781805     -2.36502843578869      0.05035400049648
  C   5.25065215453796     -1.30841115188333      0.05034504457381
  C   5.77424936126275      0.01122692680976      0.05059905965872
  C   4.98461335842543      1.11913673908634      0.05062838371961
  C   3.53880039728649      1.06011719804040      0.05038261509287
  O   2.81989237925506      2.07150152020386      0.05035648354460
  H   6.86886067484287     -5.28818497160595      0.05027102485068
  H   3.41591051991149     -7.37546112329435      0.04949745175129
  H   6.85480791063784      0.09118347908965      0.05079378432153
  H   5.41492769920800      2.11291636462031      0.05085782021680
