23
Coordinates from ORCA-job 16349optt
  Br  1.69599657816088     -0.24201696067703     -1.68190077939839
  C   3.29387180222542     -0.18468889060223     -0.67905736859563
  C   3.96709384222077     -1.35660445961404     -0.32343970449823
  O   3.76202905217986     -2.59693567690459     -0.90906165407238
  C   4.55334747260016     -3.48748453641940     -0.13151438477938
  C   5.75967681768640     -2.66638460311765      0.34175150588707
  C   6.84055096282327     -2.60807036033506     -0.74880841335756
  C   7.21165581531495     -3.94983849422421     -1.30914704494776
  O   8.31534835750240     -4.26655284470224     -1.68563222271823
  N   6.16044022136003     -4.84872089191249     -1.42703712104595
  C   4.86296877291025     -4.72355349784352     -0.95436637008906
  O   4.05943171943978     -5.60114996273729     -1.14945868909274
  C   5.08504476320299     -1.33169867935046      0.48849163933056
  C   5.53921101613926     -0.12821920651748      0.98049716972598
  O   4.79062264610708      1.01440022984688      0.76796736915785
  C   3.68154112612790      1.04911730021775     -0.08926383459033
  O   3.15581352558148      2.13475714174463     -0.21937377930918
  H   3.96439112085392     -3.81616615245343      0.73204390214560
  H   6.17237989757438     -3.07857471540388      1.26504027846045
  H   7.74427163877484     -2.11373433767919     -0.40023904357730
  H   6.44334154993530     -2.01956512641205     -1.58262989912711
  H   6.37470222772837     -5.72297964152907     -1.89012972257091
  H   6.35126907355023      0.02466436662612      1.67326816706263
