25
Coordinates from ORCA-job 16341optt
  Br  0.94708659556759     -0.24411544539697      0.56646657900491
  C   2.82009918721228     -0.12822270367883      0.36748047309999
  C   3.44882468488212      1.11285219191956      0.34666403970041
  O   2.66367481153931      2.25837689529026      0.59545748079819
  C   3.65410331345877      3.22351396486451      0.17262011579711
  C   4.72867273561829      3.05727849661531      1.35175364511848
  C   5.68521313277253      2.51118583977028      0.34644343680838
  C   5.63047240913144      3.92090184608636     -0.49838443559470
  O   6.59427561853755      4.55592846490274     -0.79181841183955
  C   4.11713308334050      4.60803064706614     -0.25587720899900
  C   4.89204586943004      1.20302420697447      0.07064926996074
  C   5.54757514207521      0.03454482777476     -0.18182494989318
  N   4.86482128349885     -1.17499122746844     -0.21683803194437
  C   3.51843985995043     -1.34881845803278      0.07465675975967
  O   3.03932475653792     -2.47926933892342      0.04178461483703
  C   3.78760077144400      2.59574022385409     -1.30658062186884
  O   4.61264746736578      2.95112899831753     -2.15186585562397
  H   4.41828224609706      2.37376400583924      2.13520656682562
  H   4.98881880095531      4.02354196942017      1.78060964207810
  H   6.73016203057793      2.32219687434147      0.59346789255912
  H   3.75796252496865      4.99507944139009     -1.20295346077873
  H   4.19041222645599      5.38616696510147      0.50071456884150
  H   6.60115961558754      0.00518302968283     -0.41295163789927
  H   5.35631032754868     -2.03475911122404     -0.39417154030919
  H   2.84088150544613      2.12073739551314     -1.58770893043845
