27
Coordinates from ORCA-job 16340optt
  Br  3.10791316156806     -0.09322808814691      2.67027147900432
  C   3.99103039501075     -0.17007204768913      1.00311702783601
  C   4.50107189475905     -1.34448956511031      0.51113573008123
  O   4.70326896350920     -2.44441732340892      1.30594133978853
  C   5.48475303256458     -3.33242623992245      0.51844626628212
  C   6.45283743473200     -4.24208301254835      1.23011593756415
  C   7.03229142011521     -5.11219448311715      0.10050111599554
  C   7.53146236788955     -4.28008207177218     -1.08841725282318
  O   6.59832270736292     -3.33455179083139     -1.57692276774577
  C   6.17455158749217     -2.45839658852704     -0.52842603270714
  C   7.30652835780356     -1.48353087947093     -0.11812736686406
  O   7.05376347733041     -0.27483516542441     -0.84589912723717
  C   5.68722887281941     -0.22260170665310     -1.18495988135220
  O   5.06819357064187      0.95391363106930     -0.82610774099204
  C   4.20302818469797      1.04274585759039      0.26675642871460
  N   3.70274814359368      2.18135023222085      0.54931076854833
  C   5.08234563024020     -1.47016226998557     -0.76910249840057
  H   4.79429533490642     -3.95601682384204     -0.06286664790489
  H   5.96182792103929     -4.86018807261518      1.98447281971382
  H   7.23656908335917     -3.66214219446107      1.72589472938088
  H   6.24987058609510     -5.79198498696363     -0.24720759549589
  H   7.86062251901198     -5.72634391690145      0.46230802307442
  H   7.76315622961687     -4.93610181353944     -1.92869801848037
  H   8.46483987138707     -3.78043123491998     -0.79902469151755
  H   8.31180734992439     -1.81022892297943     -0.38119512759833
  H   7.26076426159151     -1.28027059440121      0.95888947725470
  H   4.07790764093747      2.86877007235077     -0.10020639411949
