28
Coordinates from ORCA-job 16345optt
  Br  0.95321017129965     -0.00632017659588     -0.27574844770775
  C   2.85697502249921     -0.03689191157269     -0.04737953211712
  C   3.50543395495933     -1.25519533930293     -0.04687810868396
  O   2.67361062552515     -2.35582829742528     -0.07495176412904
  C   3.04441380093840     -3.42726081945246     -0.88808833762923
  C   1.89320391853273     -4.42975326326549     -0.98049333373917
  C   2.57192321300611     -5.73930928376248     -1.39129530813557
  C   4.00680124038421     -5.60877322097509     -0.89039569532895
  O   4.86073599131827     -6.45058940843377     -0.98003241838443
  C   4.18007414186909     -4.23070516903105     -0.28510690899204
  N   5.47383388548728     -3.68703613265580     -0.51327630799815
  C   5.86038460140960     -2.42733970661763      0.03090799670894
  N   7.12867159860047     -2.25236670257331      0.32781759412937
  C   4.94039605213617     -1.31816915596040      0.12491435368283
  C   5.55233068362296     -0.04258765112975      0.40329879478257
  C   4.86553559248412      1.14017548578049      0.41930135913151
  C   3.48558190418520      1.19238990366375      0.16748919653056
  H   3.34780570967937     -3.07269932169310     -1.88238672831336
  H   1.11718762044926     -4.09854390865397     -1.66742399844681
  H   1.44872025669842     -4.51430779601789      0.01323427983532
  H   2.63218420993637     -5.84489132165230     -2.47791887951696
  H   2.10580800032906     -6.64503183891415     -1.00356232909312
  H   3.91688560865651     -4.33858503741688      0.79008530698667
  H   6.19319476088080     -4.38253041845058     -0.36469149170693
  H   7.64490332363457     -3.11424922084275      0.17239777770253
  H   6.61502639294483     -0.05746256728692      0.59193651448371
  H   5.40311456646675      2.05976758301232      0.62292334781568
  H   2.92505315206575      2.11409469722629      0.14132306813293
