25
Coordinates from ORCA-job 16354optt
  Br  1.05583579863316      0.28529918996983     -0.38783917785542
  C   2.93817555154699      0.22090208931126     -0.18207191262622
  C   3.58869676862689      1.38352720094721      0.00543366403429
  O   2.92946626456139      2.57569574278422      0.08664524187633
  C   3.66137476008544      3.67680564064916      0.60457668616373
  C   4.63755330481294      3.16000639550421      1.66406974166232
  C   5.65274403132360      2.48315695799621      0.75129678971690
  N   4.97544980580884      1.41285962776645      0.03827978733032
  C   5.72940307474390      0.26619903804399     -0.43967214433168
  N   6.99469955561972      0.38504557746530     -0.68381931818357
  N   5.06292286390987     -0.88422368859293     -0.55575421661154
  C   3.72784879522469     -0.97896517036037     -0.35793165258595
  C   3.19242249905891     -2.30755338209451     -0.34512140243709
  O   2.02896476168932     -2.65780341624437     -0.11734489125127
  C   5.91319399895063      3.60128158618814     -0.26410385834675
  O   6.95733356903989      3.90328904136821     -0.76887206746979
  C   4.56860513499675      4.30415989543311     -0.46443817033697
  H   2.91155993134576      4.36715737365999      0.98474901921103
  H   4.15982375723863      2.47247099512048      2.36082327680753
  H   5.09944296671962      3.98419116095920      2.21007068696029
  H   6.56070075508902      2.10624304330424      1.21877177567444
  H   7.30095971760515      1.35098560066219     -0.63930187806081
  H   3.97563993700771     -3.05781344217286     -0.55717374832806
  H   4.18206242531444      4.14640247756273     -1.47095576167795
  H   4.70811997104663      5.37568046476886     -0.31131646933409
