25
Coordinates from ORCA-job 16356optt
  Br  1.29189947836765     -0.17705924471101      0.63322761374874
  C   3.16328397069204     -0.15041371815360      0.37669884845558
  C   3.79931749746666     -1.17704995548839     -0.36706977269184
  O   3.02500988056205     -2.26512721727812     -0.73917763615677
  C   3.69577030042306     -3.31973767053002     -1.41205508953623
  C   4.71214891665927     -2.73804363391034     -2.41234832276864
  C   5.76873300533440     -2.23553510735094     -1.40996253347082
  N   5.84169596951840     -3.43359285133179     -0.54702591018167
  C   6.63514500916438     -3.98872133789600      0.40978685140529
  C   5.85882241526317     -4.97574365062972      0.97309951620712
  N   4.60569165523290     -5.00349194954105      0.41220157698460
  C   4.64012802170760     -4.05192698944151     -0.48871360476557
  C   5.15503415347329     -1.10060117000736     -0.65112532362513
  C   5.91365091140820     -0.03234703981745     -0.18263773070983
  N   5.24373983241020      0.99164667593883      0.49558380856931
  C   3.87969432774993      0.98503589275359      0.83419191636001
  O   3.44331229417965      1.94625925294604      1.47521546837761
  H   2.92246503296763     -3.94597308104309     -1.84782257567035
  H   4.29072467061387     -1.92809757527763     -3.00315284692451
  H   5.10491077522916     -3.52762896398447     -3.05352056483937
  H   6.74199058331026     -1.99254709770272     -1.83272601291336
  H   7.64048383623751     -3.65842057209131      0.60387795552468
  H   6.14291251835340     -5.66963265896878      1.74785175508961
  H   6.92148758777595      0.16670418211828     -0.51788339458486
  H   5.75794735589921      1.72304548139864      0.95648600811643
