25
Coordinates from ORCA-job 16355optt
  Br  1.49264764108411     -0.88117473868280      1.40604730025389
  C   3.19414729369854     -0.57376461211613      0.64901808040035
  C   3.63274527109255     -1.33387268614115     -0.36360865299249
  O   2.85953091216080     -2.32756996943942     -0.89852603476863
  C   3.57356144883504     -3.44307906680650     -1.45273110419388
  C   4.57369710705167     -2.89187923119104     -2.47865982604117
  C   5.56152439831397     -2.21338151291697     -1.51460279157392
  N   4.85649208114559     -1.05857642211877     -0.95515496982312
  N   5.80007610177261     -0.24696158760927     -0.22789264139759
  N   5.28841976046881      0.63541310368205      0.61811098321157
  C   4.01177978036529      0.57659029962806      1.08161159032744
  N   3.49568828401843      1.45088692909717      1.89223442938764
  C   5.69994331663175     -3.28459953043521     -0.44766904286775
  C   4.53000060914028     -3.99468792699177     -0.43854480119134
  N   4.47063331210548     -4.73514902976487      0.70250315122796
  C   5.62383921928352     -4.51535550243573      1.41604488928637
  C   6.40443809555680     -3.60539381839218      0.73833769490133
  H   2.80911398627674     -4.10971440519000     -1.84540486064188
  H   4.10404944051077     -2.18151171690070     -3.15688307600199
  H   5.05039966418628     -3.70036560370371     -3.03194292917946
  H   6.47969351480288     -1.84055782066993     -1.95951408787902
  H   4.22155728325059      2.14544114475840      2.06820582094192
  H   3.69702686380519     -5.29566372740352      1.01064803631957
  H   5.79741311413347     -5.02803152967318      2.34742696833410
  H   7.34458150030877     -3.20604103858279      1.07894587396012
