25
Coordinates from ORCA-job 16359optt
  Br  1.44046631517797     -0.33617467551245      0.22759319283665
  C   3.45587428266001     -0.52390257634331      0.29728702073967
  C   4.19204673959732      0.65560733053929      0.39899603010724
  O   3.69616415799898      1.60384566523901      1.36829490636925
  C   4.72471547473396      2.51806716867709      1.26726174943927
  C   6.03690187687192      2.00941286263836      1.90649527210145
  C   6.79447531190273      2.61296445309595      0.76533571349863
  N   6.43238326831488      1.76416168233577     -0.37894436292063
  C   5.38990930661899      0.74689744894318     -0.37264175474072
  N   5.68665690089435     -0.18756211763610     -1.27808297748729
  C   4.91069947874872     -1.28099365783227     -1.43406020869050
  N   5.03851560926232     -2.20562686782517     -2.30555561633647
  O   3.87880536895809     -1.50079193146220     -0.51990489583303
  C   6.07461610344006      4.08606892428617      0.85935037036283
  O   4.83083783835114      3.91306616517645      1.59747286010609
  C   6.93888776240057      5.05718278990622      1.60557333847811
  O   8.02075110934268      5.40967612188406      1.21821545430616
  H   4.78554840390767      2.61983195156103      0.19595602908226
  H   6.12881600745748      0.93178945151236      1.97893278488187
  H   6.17043940699864      2.49466828181293      2.87288093463143
  H   7.87400326006726      2.74254892689286      0.81344026060049
  H   7.20717253790004      1.39664361088187     -0.91060468495040
  H   5.83724920230313     -1.95923545686160     -2.88261685040221
  H   5.87214718877267      4.45115308712110     -0.15119343897915
  H   6.51891708731829      5.42270136096939      2.56151887279900
