24
Coordinates from ORCA-job 16357opt
  Br  1.67289003063282      1.47324427862886     -1.22698649184294
  C   3.28161990583966      0.87739763275698     -0.44809350579317
  C   4.30240637229183      1.72877124410818     -0.30287048318772
  O   4.34173252587357      3.02547588330116     -0.72768929300594
  C   5.65941358706890      3.51977018459216     -0.56707987993330
  C   6.51723788152541      2.30334943560188     -0.11131555615071
  C   7.39990274512714      2.77426505032983      1.05941409475253
  N   6.77771792879201      4.04309042100161      1.40482708414320
  N   7.00414340326223      4.87620739594750      2.40139023280744
  N   6.20426210269931      5.88999122120995      2.22655216983497
  C   5.46861968745504      5.69755843502237      1.10183191469918
  C   5.83555922491808      4.48985419972285      0.56027165959515
  N   5.49075893113249      1.39853578581779      0.31330722159714
  C   5.77297400243618      0.01186578949965      0.50826445368898
  C   4.67927834374541     -0.86673347685308      0.50717369330747
  C   3.39002738862211     -0.53808306765158      0.03695474123862
  O   2.40276750865104     -1.30194053542988     -0.01856227880256
  H   5.97822335767907      3.94239578574224     -1.52066354875878
  H   7.12366929337837      1.86242251458797     -0.91852105814901
  H   8.43665576479619      2.93918294872381      0.76600385078466
  H   7.35438464979352      2.08149903826887      1.89741936468547
  H   4.73469736256603      6.41265596738282      0.77615898265165
  H   6.65782020374176     -0.17819041661302      1.10176292725618
  H   4.83023779797170     -1.88658571569897      0.83644970458148
