27
Coordinates from ORCA-job 16361optt
  Br  1.00931533559443     -0.43522705043111     -2.51970820053527
  C   2.43962411365470     -0.32702786791946     -0.57381204454090
  C   2.99781959263072     -1.52866309155731     -0.20272750206152
  O   2.24141805472787     -2.68490688572116     -0.26961812418139
  C   3.02703221606053     -3.86013576044627     -0.19476717110499
  C   4.01380532118604     -3.97202057149000     -1.37396768104519
  C   5.34970386573927     -3.42874606939730     -0.78802472658726
  N   4.97756286099255     -2.78753486360057      0.48820823517375
  C   3.96329491772754     -3.71198423103479      1.00277094831305
  C   4.35024759228558     -1.52755168230028      0.16169912540374
  N   5.12724777207757     -0.46835290750273      0.15844934940416
  C   4.60511704768504      0.74058627998752     -0.16959462047467
  O   5.21182067919619      1.80199853739846     -0.14953125337045
  N   3.22897845757744      0.75806668027275     -0.53755334821562
  C   2.67513225456019      2.06470405519406     -0.88813260794847
  C   3.14877141527178      2.55824366705108     -2.18259743409827
  C   3.51537612878590      2.98179067312745     -3.24034799593820
  H   2.32166702009918     -4.68672845261601     -0.13506618941603
  H   3.64821329236484     -3.36704435181037     -2.20382986779163
  H   4.10711675953753     -5.00352713505414     -1.71548711408545
  H   5.84814292024570     -2.70599160570846     -1.43028591967133
  H   6.04521725413823     -4.24274123628148     -0.57067805904901
  H   3.46030659518916     -3.30257778070260      1.87747623421720
  H   4.44963496327469     -4.65507450325910      1.26253146970017
  H   2.96554168789532      2.77484169278513     -0.11320436437673
  H   1.59317082975130      1.95290069945486     -0.92036404519539
  H   3.84772105175060      3.33370376156188     -4.18583709252427
