30
Coordinates from ORCA-job 16362opt
  Br  0.44333304083162      0.47109266078985     -0.79702271956989
  C   2.66332233712447      0.43379328147843      0.61335106576495
  C   3.15807945177365     -0.74472937811542      1.11473375587577
  O   2.28570440197245     -1.67182107068960      1.63134875053478
  C   2.28232092498913     -2.99007242270436      1.08966302435699
  C   2.72656831085529     -3.06348919336781     -0.37524246789519
  C   4.23437481535250     -3.43671044981302     -0.29848415865970
  N   4.59402318800399     -3.50146299113710      1.12907695707453
  C   3.33703869432213     -3.84882341994258      1.78430635515244
  C   5.17071277967118     -2.24437908727027      1.62085974418595
  C   4.54618336941027     -0.95656093302031      1.11918053805093
  N   5.38757246824815     -0.04051626426795      0.64373934561484
  C   4.90316144948088      1.10130559275327      0.16330405614602
  C   3.53942173512364      1.39196707043142      0.12932537127192
  N   3.01598117286126      2.56410285423836     -0.43237383814037
  C   3.66728699862070      3.74681736304686     -0.57235502122053
  N   3.24989078294446      4.82000378396162     -1.12275209003158
  H   1.26428618906442     -3.34933681951739      1.23681009005525
  H   2.52719124192127     -2.12201623975805     -0.88695177009032
  H   2.16062482264029     -3.84388918916568     -0.88437417254022
  H   4.87210577035850     -2.71551111637612     -0.80901794130475
  H   4.40309007256872     -4.41860192872563     -0.74700980885081
  H   3.38388220052955     -3.66966002105989      2.85813362765673
  H   3.12403155158575     -4.90925797119828      1.60771844679466
  H   6.22132714444290     -2.20304173807369      1.33028653308707
  H   5.13276234530937     -2.27878192826506      2.71357526154112
  H   5.63184782752291      1.79564002243962     -0.24281568503948
  H   2.04013473610238      2.47506232511568     -0.70925981527826
  H   4.66326831118385      3.75092586060555     -0.13200814357328
  H   2.31047186518417      4.68595134760763     -1.49974529096955
