27
Coordinates from ORCA-job 16364optt
  Br  1.00200757436353     -0.16569709009617     -0.07231997123246
  C   2.89077155001726     -0.07358894575101      0.07388928278259
  C   3.62455007808125     -1.24416840910408      0.22331947098689
  O   2.95922239752378     -2.40748595129462      0.26228631255198
  C   3.73015559523398     -3.63469711989581      0.12448021677125
  C   2.86604949815887     -4.78331618205071      0.62623873247928
  C   2.12623470173399     -5.29835546678502     -0.60883165552306
  N   3.08314076924265     -5.01290964729114     -1.67108036404623
  C   3.81959025374941     -3.87600501543407     -1.38420761495288
  N   4.49227010749647     -3.13901530176660     -2.17873728752371
  C   5.07179626637261     -3.56166638811636      0.81354748766234
  O   5.63191557621227     -4.62072690524391      1.23588068416750
  C   5.88057181754075     -2.34467384898962      0.46838839538714
  C   5.02894600115328     -1.12139348572926      0.31855116818463
  N   5.63339514284226      0.06041493591334      0.27498344297865
  C   4.90210163157847      1.16925939390233      0.14289627324235
  C   3.52644343775035      1.15890519289582      0.03563827313808
  H   2.19919295101890     -4.44306839977324      1.41537463860197
  H   3.54975305965307     -5.53595330150108      1.01838403301372
  H   1.18386236473193     -4.75810379135801     -0.75974002838130
  H   1.91143341088299     -6.36657644639546     -0.55675968990120
  H   2.81840360132380     -5.16377373335549     -2.63224250534341
  H   4.40468892847514     -3.45773687146351     -3.14345166234401
  H   6.44725117017545     -2.48188451933482     -0.47176998121487
  H   6.61610538702236     -2.16480005904418      1.25590793612727
  H   5.44520147839631      2.10839526744217      0.12089818589780
  H   2.95994524926870      2.07262208962060     -0.07652377351030
