27
Coordinates from ORCA-job 16366optt
  Br  1.36461895408000     -0.79729357008739     -1.85594746838756
  C   2.92972655347281     -0.44651463527831     -0.08034023859564
  C   3.72879558701777     -1.52016306897459      0.24360106937170
  O   3.15978589210430     -2.77606707549676      0.43212200703190
  C   3.45411722407686     -3.65655589448873     -0.60720424270645
  C   4.81871410217443     -4.33271942304950     -0.44969936435060
  C   4.70605154887027     -5.50703654350807     -1.41901649309025
  N   3.30385313383900     -5.85461809342574     -1.26396900221820
  C   2.52344912915304     -4.86508549157868     -0.71689998459068
  O   1.36179360244485     -4.97281242609732     -0.42435419065436
  N   5.99549504266038     -3.51225367780166     -0.59619435075403
  C   6.08510617498394     -2.47310228150560      0.43654459059842
  C   5.11873541577794     -1.31030709055019      0.27757436883604
  N   5.69099279164155     -0.13314444578965      0.12371710465636
  C   4.90421571954896      0.97601226376708     -0.06913601896508
  N   5.31284161343207      2.19233790166962     -0.15195158017940
  N   3.52935452408665      0.74327234052790     -0.20416027285852
  H   3.39273404041830     -3.13230437101425     -1.57412178899669
  H   4.83763499297555     -4.74028300522993      0.56728389886443
  H   5.36379374852601     -6.33343411496487     -1.14965549886175
  H   4.94488270450310     -5.18836043416258     -2.44081338872832
  H   2.89570669554017     -6.72729576477934     -1.55179527104348
  H   6.00287550629322     -3.06929411900754     -1.51097372950388
  H   7.08768671646135     -2.04940761368999      0.42876912235462
  H   5.92227689281818     -2.95878308337238      1.40266462352625
  H   6.32317962383587      2.18768512223657     -0.05061882972669
  H   2.97958206926328      1.54752859565198     -0.47342507102813
