22
Coordinates from ORCA-job 16369opt
  Br  0.55073750375276     -0.64600805662165      0.04109118214140
  C   2.92617280265608      0.25101816336748      0.00736019526705
  C   3.68702785170652      1.37420031559312     -0.01211049925861
  O   3.04164640483664      2.58633284926396     -0.01566660636901
  C   3.76213882679158      3.71563813053754     -0.02986858803139
  C   3.29270635091894      4.96933629068455     -0.03139723394302
  C   4.47589555197146      5.85902678410665     -0.05041476250170
  N   4.51461029061833      7.13757744367064     -0.05726615292447
  C   5.66688184000124      4.99229942026074     -0.05991667985112
  C   5.25406998294222      3.70682031768643     -0.04703819810841
  C   5.90649802282511      2.44102088083988     -0.04527496186651
  C   7.32443426965031      2.36582319671834     -0.06182679415267
  N   8.47582549457510      2.36248755414633     -0.07636646342427
  C   5.11862706797082      1.29309990224330     -0.02752944328216
  N   5.70372393445740      0.04977609232908     -0.02410093678418
  C   4.94112892696589     -0.98873701841528     -0.00599236873623
  N   3.59417797949538     -0.92983985171644      0.00977863948466
  H   2.26297512520083      5.28846872313362     -0.02087125805293
  H   3.56538410823885      7.51109354259486     -0.04755467280407
  H   6.68114984681040      5.35759872094207     -0.07366216420849
  H   5.38385159643190     -1.97902925294524     -0.00259713329371
  H   3.02433622118174     -1.76800414842027      0.02522490069985
