23
Coordinates from ORCA-job 16367optt
  Br  2.22358000024758      0.36362263068840      3.76729952251020
  C   3.62238860579958      0.24293506429985      2.46924307483000
  C   3.53028590410946      0.96895948241752      1.29751503087616
  O   2.70101625412392      2.10669951977684      1.33987188468599
  C   1.61329778054962      2.12387597904704      0.56574156011101
  C   1.21924966972717      1.53444585469704     -0.61519404646118
  C   1.93760856950548      0.56239078503076     -1.50429995702273
  N   3.19932395619335      1.04056717979610     -2.06240136975328
  C   4.13601346984596      1.57845743272396     -1.05726194676891
  C   4.24431953532254      0.67232496920687      0.14170658734263
  N   4.98736545975104     -0.44031507513747     -0.06157736898825
  C   5.30931068204817     -1.32375103569659      0.86115365980920
  O   5.94608305851059     -2.35014414043068      0.76047654827739
  S   4.78448240232852     -1.01130369632940      2.66026795577606
  N   -0.00894802090369      2.04598713168226     -0.91555206041079
  N   -0.38385065858019      2.88998522361781     -0.01666292249265
  N   0.59906633759988      2.94519690107266      0.89260800769244
  H   2.14401369457600     -0.36171383136659     -0.96247511177136
  H   1.26637062276120      0.31708704470671     -2.32761724231168
  H   3.00361449408486      1.76697748019731     -2.74144904123762
  H   3.84841315062794      2.58432367028955     -0.73065000000726
  H   5.12002962113726      1.63499558820420     -1.52499319183759
  H   0.51996541063367      3.51939584150581      1.71525042715221
