24
Coordinates from ORCA-job 16363optt
  Br  6.01382287386512     -3.26127156107032      3.14112057493674
  C   4.91884170375516     -1.90602275669780      2.39084031160392
  C   4.12486554015192     -1.07417975809932      3.25614725315561
  O   4.78161654387330     -0.24462934945682      4.21940044172984
  C   5.82924443543475      0.30819570710947      3.50695831126917
  C   7.06880068858766     -0.19990388855007      3.42107194912268
  C   7.37867274798014     -0.14635324746650      1.99082992549827
  N   6.65183014467687      0.90901118352403      1.42988230857134
  C   5.54091394105752      1.22072704485252      2.33507787579511
  C   7.85055555211228     -1.21177424161005      1.31384681324897
  C   7.23947319544518     -1.72264782206258      0.04024289131164
  O   7.94486258424722     -2.07381417150629     -0.90557904411319
  C   5.78798511727513     -1.80466812489598     -0.01900123412599
  C   4.87426644409706     -1.68120426683789      1.01844212191832
  O   3.60998777388246     -1.20086240141078      0.58927025622189
  C   2.72951340479606     -0.76440066107197      1.51368923884391
  N   2.96148168640934     -0.56205232117263      2.75580737792981
  H   7.45620895928247     -0.97099277869397      4.06647122099936
  H   6.37686196083413      0.72472476633360      0.47253364394230
  H   4.57167072207224      1.00692295182843      1.88240937666353
  H   5.54308983289825      2.27484436049718      2.62808703709866
  H   8.48904951811614     -1.91449980230834      1.83515356657651
  H   5.37761091810973     -1.90930395362134     -1.01712502268895
  H   1.77477371103976     -0.51584490761256      1.06742280449051
