25
Coordinates from ORCA-job 16371optt
  Br  1.05898672334568      0.49566835681824      0.18113200574959
  C   2.92995315572401      0.31954884106022      0.08051941948863
  C   3.76506388392763      1.39913258493744      0.14237028113815
  O   3.37177231537068      2.70894880063616      0.17079529870765
  C   4.54310130583642      3.50220238101774      0.28519728399063
  C   5.77987472906240      2.60062014202710      0.00753673937658
  C   6.94249058793864      2.91423262204371      0.95197298461047
  N   7.10397184287809      4.35674421649936      1.16531140247098
  C   5.96829991939392      4.87923207517670      1.91451581525035
  C   4.63395593638880      4.18725524666040      1.63863029555896
  O   3.73881010750387      4.22616660716364      2.43841852733291
  C   5.14843453171760      1.25494830680901      0.13619073338598
  N   5.78498214612395      0.04839535396634      0.03758833476347
  C   4.99520641320256     -0.99943095578764     -0.00427390842636
  C   3.57960243003109     -0.97833141593323      0.01745102665951
  C   2.87577865678415     -2.19073441626057     -0.07281068576744
  N   2.32233163525673     -3.20730605359107     -0.14983617932173
  H   4.47488407804710      4.31150111631470     -0.45352709035293
  H   6.13929641909335      2.78885885294354     -1.02027725901478
  H   7.86845960790419      2.49113118949725      0.56414757159976
  H   6.75775022513383      2.45258544595089      1.92656728465441
  H   7.17568249920350      4.81903276935359      0.26570775135406
  H   5.84089364927226      5.94636833605010      1.71326073459923
  H   6.14489650398747      4.77633188079848      2.98829830552035
  H   5.47552069687201     -1.97210228415213     -0.07088667332842
