21
Coordinates from ORCA-job 16385optt
  Br  2.16050858116639     -2.23772762937065      1.57641336136133
  C   3.29010477818587     -1.07700395177460      0.60849095118472
  C   2.85581916451805      0.17484925498268      0.26374843469404
  O   1.53260745136908      0.44010233228575      0.54168181052987
  C   0.87657063188807      1.51554117561519      0.11523362038404
  C   -0.43954681925152      1.65361764889523     -0.06469532453837
  C   -0.64554437147463      3.10241040898770     -0.30564844527692
  N   -1.72548197290198      3.72597634068822     -0.53553738962730
  N   0.59884986490226      3.79274386288147     -0.23811092778098
  C   1.46598625708592      2.88330661608914     -0.01249500328223
  O   2.74855498416005      3.07809081967654      0.22292703160272
  N   3.60348127202308      2.36971116599925     -0.71718418312428
  C   3.72828460327231      1.06620870991552     -0.45765207770270
  N   4.84710875618107      0.52657500808379     -1.02814276503700
  C   5.22427674371544     -0.67436035364676     -0.73048979196954
  C   4.56790504913110     -1.57435041746117      0.18864550634970
  N   5.03433425131092     -2.74048008000313      0.56373759219169
  H   -1.21258817640602      0.90531731816658     -0.00181460720002
  H   -2.49832668077759      3.06075883716542     -0.54954456641469
  H   6.13375520064552     -1.03918679504932     -1.20710897562320
  H   5.93634043125654     -2.88910027212688      0.11154574927911
