19
Coordinates from ORCA-job 16383optt
  Br  0.99239428267461      0.70204191974941      0.03810213284411
  C   2.81779255693545      0.25916230273163      0.03461264976395
  C   3.73489706922479      1.24143988387955      0.03211200068732
  O   3.49672348952240      2.61624990650805      0.03272408818868
  C   4.73366298701415      3.15869338542248      0.03081556577293
  C   5.74118077804615      2.24897499708939      0.02863805806711
  C   6.91529961353346      3.01680543236111      0.02784638819209
  N   6.61018842186057      4.31554954840242      0.02918391057138
  N   5.25519506216303      4.38920640462725      0.03125513329091
  N   5.10405921949646      1.01154263973828      0.02915732860120
  C   5.53713387346185     -0.29649465515631      0.02850307927414
  C   4.61033276674314     -1.33252183983665      0.03151978794759
  O   5.35009835614056     -2.46605752496911      0.03051406872018
  N   6.74542934968600     -2.06580016350339      0.02646900336648
  N   6.77359538869938     -0.74063233866380      0.02560504927788
  C   3.20153621523088     -1.18951595206431      0.03521181790312
  O   2.34712005146988     -2.08641115865738      0.03881678781815
  H   7.94402058064506      2.70175999352325      0.02630575932247
  H   4.79933993745214      5.28300721881812      0.03260739039031
