28
Coordinates from ORCA-job 16386optt
  Br  1.87382705657570      0.11633494432771      1.45088293492980
  C   3.15570170875533     -0.18619257976595      0.10703458485083
  C   3.62573770147483     -1.40862998648114     -0.14062928792097
  O   3.35382737689886     -2.56429510102123      0.51950912855966
  C   4.14808624178225     -3.61111775858601     -0.06349351033058
  C   3.23264034028361     -4.50732154161119     -0.89915821765047
  C   2.79197977414942     -3.85598819077663     -2.19109296365969
  N   1.65399390746994     -3.32398006603804     -2.39411250150548
  N   3.72762502392190     -3.86455782970160     -3.19910999572388
  C   5.09825671721977     -4.28105217333364     -2.99263710326510
  C   5.94687270114867     -3.44542200168046     -2.02440530758735
  C   5.25120273060182     -2.83986553335908     -0.80860309803172
  N   4.51978991731963     -1.63714336212774     -1.15441914042247
  N   5.33997087036610     -0.55437405974069     -1.61259469534385
  N   4.78143794942282      0.64529400551133     -1.50714459654021
  C   3.67903443683367      0.90716695983472     -0.74151212178685
  N   3.11071312677998      2.07146137026357     -0.68366359276960
  H   4.55627057055918     -4.19398591188128      0.76339682635517
  H   3.73992890058766     -5.45296767781632     -1.10036518244291
  H   2.35150439239661     -4.72945892325580     -0.29749263736039
  H   1.08534187681202     -3.36741500751979     -1.55441952291729
  H   3.56185969804654     -3.14519366359666     -3.88700599195287
  H   5.09388779776692     -5.32557045416291     -2.67278204526961
  H   5.58236082119545     -4.27902613079484     -3.96996077232652
  H   6.37053280008844     -2.58205397819739     -2.54139592177757
  H   6.78466000917803     -4.06383027056665     -1.69051367913053
  H   6.03633304924064     -2.57822248842714     -0.08064812249908
  H   3.62862250312411      2.68140741050490     -1.31566346648042
