26
Coordinates from ORCA-job 16393optt
  Br  0.51960117668884     -1.11301160145612     -0.59391208625985
  C   2.79789441856514     -0.34168356886783      0.21024417477690
  C   3.63655562185814     -1.36137923758330      0.42137476492706
  O   3.13937505082604     -2.61119604788551      0.77613397801237
  C   3.82976024128698     -3.67914891492703      0.16281306735586
  C   3.05417861060827     -4.93144139379706      0.53933524842550
  C   1.89037800649194     -4.82862451248029     -0.44361638557057
  O   2.49860449909923     -4.34772508016268     -1.65174049917033
  C   3.62540318680843     -3.65954124130033     -1.35122711441112
  N   4.40219156735629     -3.12711045524064     -2.18174057511482
  C   5.27280945903597     -3.62083291881838      0.60910257290607
  O   5.85087633024575     -2.33580975840989      0.45379660664119
  C   5.06024574423364     -1.23849152726162      0.29775235837208
  C   5.70062017208686     -0.07242471432215      0.01688956859811
  C   5.06406554754936      1.20128189561982     -0.18804975531176
  N   5.63114567125926      2.33196586250103     -0.41524616881077
  S   3.28079521169375      1.23655410923131     -0.14174028551879
  H   2.74677315061278     -4.90268883750736      1.58273061373412
  H   3.65150285768921     -5.82570691912081      0.34545630567406
  H   1.15403548333253     -4.09390993612880     -0.11186124786403
  H   1.41468277588232     -5.77978961680792     -0.67250677750530
  H   4.03361074126490     -3.21927560674017     -3.12796375831076
  H   5.89034144746879     -4.30984217213728      0.03128591479759
  H   5.31114699315672     -3.89521069824926      1.66871769933626
  H   6.78021395868616     -0.10524602123419     -0.07586200164296
  H   6.64319207621252      2.21128891308656     -0.42516621806611
