27
Coordinates from ORCA-job 16399optt
  Br  0.90877603788888      0.02127382702655     -1.16693207744364
  C   3.05666515768458     -0.20458093927169      0.22908366998010
  C   3.65504705579936     -1.44265634060508      0.16046215478242
  O   2.87534935918420     -2.58271994962347      0.06808704157930
  C   3.61520050448142     -3.64516134343091     -0.48131333722763
  C   3.84701753652715     -3.41465760705087     -1.98317925741001
  C   2.51535245017956     -3.30561371589328     -2.68550978568807
  O   2.12567728835166     -4.13803678080649     -3.46764710620463
  C   3.06164774041975     -5.03482634458668     -0.21142771495381
  C   4.35863206822393     -5.87794196769483     -0.25618968311507
  O   5.46937428756958     -4.98036131318261     -0.07986681807795
  C   4.91931425868903     -3.75723985610889      0.29809669554354
  O   5.77146326208814     -2.69208668830740      0.03456877971363
  C   5.05647360455053     -1.50485147053148      0.16071570764376
  C   5.77473849399444     -0.32182129134499      0.25875438409726
  N   5.20230447174530      0.87245427731534      0.33830826573895
  C   3.86293262445984      0.91528274211369      0.31262714243598
  H   4.42148242650467     -4.23562420664703     -2.41199012815278
  H   4.39584199169958     -2.47995459464072     -2.11943710747544
  H   1.90245784849015     -2.42442065803968     -2.42448163122700
  H   2.33080853439285     -5.36302631338315     -0.94817776699818
  H   2.60473225573328     -5.05275571438723      0.77796936853455
  H   4.48740787677258     -6.37283072424304     -1.21919439476251
  H   4.38189858106900     -6.63256244119048      0.53164233330049
  H   4.67338264660707     -3.75419883493187      1.37351825270414
  H   6.85869580948862     -0.37303127460448      0.25889693400425
  H   3.41732582740460      1.90394952405090      0.33961607867838
