24
Coordinates from ORCA-job 16392optt
  Br  1.12551325039672     -0.04943267858344     -0.13098378981033
  C   3.00489409564887     -0.23595475134069     -0.18666960921020
  C   3.60075739734983     -1.39007636490283      0.10844049552282
  O   2.90222331398133     -2.53185983096107      0.41753139470231
  C   3.43149401389473     -3.58806809846517     -0.35243367725627
  C   2.85709937197835     -4.96794840580398     -0.11365583684794
  C   4.05916427218198     -5.85188371052012     -0.53202379184680
  O   5.21013432682034     -5.00548644412449     -0.63424160786062
  C   4.88114844977368     -3.81022029687956      0.02421622903488
  C   5.70852004444955     -2.58317458857488     -0.30434538272846
  O   6.83400978996580     -2.62333492852741     -0.73010216616397
  N   5.01384589512056     -1.43488606871655      0.04540287213677
  C   5.75168524978611     -0.18306952435833      0.38026934039587
  O   6.83899799146354     -0.28266859644631      0.94605352610906
  C   5.07143663057510      1.03345303287775      0.04006116026120
  O   5.49938650385238      2.18218670965773      0.19043288762737
  N   3.74563525309623      0.88613812402336     -0.50702676861048
  H   3.37614744043484     -3.32604273488509     -1.41711481508632
  H   1.95930962446260     -5.17949500784446     -0.69097903418861
  H   2.63050390429727     -5.07910303911371      0.94748575090565
  H   3.90830491670774     -6.31678281364362     -1.50698676631374
  H   4.24773480139648     -6.63984471068149      0.20202926545594
  H   4.93356873020593     -3.93727266870215      1.11704801663690
  H   3.25848473215998      1.76882739651653     -0.51040769286504
