25
Coordinates from ORCA-job 16397optt
  Br  0.92667236387428      0.26837450609278     -0.31122739149761
  C   2.80986113833771      0.19108095038528     -0.54020273605054
  C   3.49179391481788     -1.00861699220656     -0.25764154411308
  O   2.66790764979084     -2.17216476882224     -0.47338370151370
  C   2.50685256366890     -2.89143796548810      0.75832215092214
  C   2.86792208886227     -4.40674648231811      0.68544577895191
  C   4.42699153183947     -4.50055912716198      0.88640748476771
  O   5.02994915248223     -5.50768665046890      1.13967245430548
  C   4.80962704401440     -3.08066086558856      0.60938129603156
  C   5.86798165714825     -2.04025987447377      0.36743326600706
  C   4.97257073712599     -0.94270369970496     -0.25805428489497
  C   5.54434953626951      0.23029493257971     -0.60159619130313
  N   4.81897158792354      1.31992328589418     -1.02375721074802
  C   3.42635418191610      1.41406464427423     -0.93175829964814
  O   2.89146875027769      2.48837676441661     -1.20178696883494
  C   3.72201083936302     -2.42257737401081      1.50920125580827
  O   3.89216609916833     -2.10384387829766      2.67278863550183
  H   1.52754518102013     -2.68324956098866      1.18771809791912
  H   2.60192220847105     -4.86920000469198     -0.26811349997426
  H   2.36776106138064     -4.95146509662864      1.48625336630683
  H   4.36830359545989     -3.10905995889588     -0.38891403658128
  H   6.65190700075833     -2.36092056102240     -0.32006504027741
  H   6.32443279291211     -1.67779913888433      1.28985547430041
  H   6.61092902153715      0.38672983914758     -0.49416345936101
  H   5.27474830158018      2.18010707686322     -1.27781489602422
