26
Coordinates from ORCA-job 16390optt
  Br  1.14918177655589      0.23969272256780     -0.02303144118437
  C   3.02744844759899      0.03710264862595      0.06227020251556
  C   3.61411738973266     -1.23705695834910     -0.13311556584898
  O   2.75949382820270     -2.33106737339644     -0.22408464135383
  C   3.40473128721530     -3.44649482606300     -0.75028894966094
  C   2.65479956571398     -4.75643375584984     -0.58779546316404
  C   3.81766690629370     -5.76810727111461     -0.72053243029363
  O   5.02658798307985     -5.06267890833348     -0.44845386124463
  C   4.69456672142962     -3.74815215187528     -0.01080658459306
  C   5.70898198465189     -2.68377512912785     -0.32900126815947
  C   5.00247346838943     -1.35610338771761     -0.13459314371154
  C   5.74908642944759     -0.21575839944945      0.07766764147637
  O   5.18577499437687      1.02575522620557      0.24557246088282
  C   3.79463210363860      1.20711394358002      0.23789160785390
  O   3.41609609835547      2.35504169961752      0.38149654730969
  C   3.66850408248220     -6.88606241189429      0.28062567539839
  O   3.23207284525483     -7.97585643976175      0.03197143603904
  H   3.65074009454422     -3.27449169107387     -1.80880739824190
  H   1.87388985644639     -4.93234915445363     -1.32345872015894
  H   2.21130518610440     -4.78378597574846      0.41128732779273
  H   3.87143663752245     -6.19763761721525     -1.72285376832088
  H   4.47761608534240     -3.75148339944824      1.06640452494527
  H   6.04446554949131     -2.81387891201300     -1.36306171167181
  H   6.58615995672883     -2.74764895306998      0.31808318488211
  H   6.82826735252284     -0.18862315953629      0.06912798988733
  H   3.99290336887722     -6.61126036510519      1.30548634862480
