26
Coordinates from ORCA-job 16395optt
  Br  0.62581986871202      0.30237428516453      0.74550769774348
  C   3.00145578647120     -0.15624901402163     -0.01494693802923
  C   3.71829889594665     -1.29169559899218      0.16295931280821
  O   3.07034114694529     -2.50710891148550      0.39009205790145
  C   3.85714243828521     -3.63342666044870      0.09200673506244
  C   3.05869321555969     -4.84270593441883      0.54193602413935
  C   2.07782322983680     -4.98666618734820     -0.61757972558486
  O   2.83467254796723     -4.62458401945270     -1.78077045560333
  C   3.88833858479391     -3.84699554049733     -1.43677531183584
  O   4.67393047706458     -3.43886328929925     -2.23222269546383
  C   5.22840651953749     -3.49638506372841      0.72067007829421
  O   5.90058222016723     -2.32750226326355      0.31039779771905
  C   5.13180868361516     -1.20813339150116      0.16095729537256
  C   5.76875782131696     -0.01428799256775     -0.02246725710469
  C   5.02462814884673      1.19958851798332     -0.20643800931742
  N   5.45871878836051      2.40613196972155     -0.39107229490219
  N   3.64307469945276      1.01059357537250     -0.17206712358892
  H   2.57338731513166     -4.65997482485666      1.49821331799017
  H   3.70394750520456     -5.72176034862858      0.60898974864235
  H   1.24182483143696     -4.29491018480665     -0.51321872173945
  H   1.71115576470486     -5.99988755113472     -0.76597262514003
  H   5.86616132789462     -4.33593970692403      0.44146970922064
  H   5.09620678129118     -3.48899026782657      1.80943856891863
  H   6.84878298167137      0.01681988509049     -0.03546584326613
  H   6.47367363198410      2.40238610975729     -0.39588740545921
  H   3.08536678780115      1.85017240811276     -0.26475393677740
