14
Coordinates from ORCA-job 163optt
  C   -3.04414199514194     -0.47828750939781     -0.00292281602752
  N   -2.36551617325708      0.71710495754207     -0.00223285157544
  C   -1.03481542789231      0.64359472950974      0.00236108088889
  C   -0.28445874972531     -0.51158798160825      0.00650651388220
  N   -1.00014765401044     -1.72365831982645      0.00560969784813
  C   -2.38234303455490     -1.71974206192444      0.00088864847041
  C   -0.58578306834326     -3.03165765267690      0.00907654239588
  N   -2.84986918313329     -2.97769253757228      0.00111761907999
  C   -1.74007724618883     -3.77234861891809      0.00590377325704
  H   -4.12498563181246     -0.45871225531645     -0.00681187104542
  H   -0.49649940236909      1.58938305934916      0.00299013287040
  H   0.79274218062112     -0.56069785095699      0.01032543679649
  H   -1.81788525103638     -4.84974755717442      0.00710281167485
  H   0.45578063684419     -3.30395040102889      0.01308528148412
