22
Coordinates from ORCA-job 16409optt
  Br  1.91586755711156      1.10494212273430      2.76032846080492
  C   2.87363785937349      0.61950183807637      1.16409485321779
  C   3.72563066204566      1.58423064956684      0.57145548220626
  O   3.14732730669394      2.88940737230092      0.34418359417880
  C   1.96712821654977      2.65450678238202     -0.29100814201037
  C   1.70027090046045      1.69698639467263     -1.23225806825627
  C   0.35214905794435      1.30907684853891     -1.02890512636356
  S   -0.28830972956674     -0.28260000946776     -1.38587732379873
  C   0.23876433248094     -1.21643585408460      0.08811881059424
  N   1.28115176139771     -1.24296631877770      0.78728091023263
  C   2.51323487610927     -0.59361009588414      0.51794948319104
  C   3.37300398560208     -1.15557530704472     -0.37116790057768
  S   4.98397659033639     -0.53827821296527     -0.60817162710114
  C   4.77740585255839      1.27255458750103     -0.31678422895216
  O   5.51502651618354      2.02095720043614     -0.93406932477858
  C   -0.19817562677307      2.15255551934759     -0.08938685719794
  N   0.79261104471883      2.99917311789852      0.32431594989887
  H   2.44289462378332      1.13777110199365     -1.77668695585488
  H   -0.57700791666723     -1.87810344867230      0.38474778095471
  H   3.08354426429562     -2.00532220669273     -0.97445497053427
  H   -1.18874968508413      2.17904705618599      0.33012344170544
  H   0.77361755044583      3.54318086195427      1.17017175844090
