24
Coordinates from ORCA-job 16403optt
  Br  0.78295045251370      0.29367571547868     -1.91963621988357
  C   2.51662924866800      0.38974554477200     -1.19865079826553
  C   3.14708690440595     -0.69237472120044     -0.60813982120176
  O   2.63015291145890     -1.95632208038287     -0.51504283374375
  C   3.56605232524131     -2.74480003377335      0.21791800596263
  C   3.04517975294234     -3.07137583539480      1.61964945637611
  C   4.27737578602737     -2.89730752501371      2.48023097448174
  O   5.00115293172998     -4.14867482418747      2.43388952279879
  C   6.19027097894284     -4.15013149570656      3.06560368963460
  N   6.96838821270889     -5.13748427101509      3.11425990778780
  O   5.00748550900117     -1.87129220782944      1.92646644601284
  C   4.82722090516437     -1.88179711762894      0.47975196782744
  C   4.41657591938617     -0.57239113182597     -0.08430097112388
  N   5.17742608737685      0.52329223093405     -0.10940118240605
  O   4.51989859062853      1.62322834045641     -0.71290290467119
  C   3.23651195005750      1.61956199792235     -1.24441781473304
  O   2.85478113554711      2.67482597418031     -1.70517089364264
  H   3.77736749731470     -3.63945979911312     -0.36523727600883
  H   2.60396871066827     -4.06064124643065      1.71463739960094
  H   2.31198926107898     -2.31109063740977      1.88923588941860
  H   4.08354723951760     -2.65731078384224      3.52729463570036
  H   6.45172393658827     -3.20957103369062      3.54832065069536
  H   6.57200004824101     -5.92103292582218      2.59322882334124
  H   5.74726370479010     -2.28927213347652      0.05541334604177
