22
Coordinates from ORCA-job 16401optt
  Br  1.15007135200145      0.83870236026834     -0.03686713061124
  C   2.96982698033699      0.32364569520970     -0.06063590324255
  C   3.95645595859138      1.32124753602728     -0.01811656603946
  O   3.66146305644118      2.67868094087925      0.06080851218553
  C   4.84939557196647      3.31039954619177      0.07227555132635
  C   5.33438913490295      4.59779450406223      0.13189815054926
  C   6.74555030824851      4.41918377114616      0.09226288271118
  O   7.68272587191894      5.43609112300870      0.15842792206951
  C   7.60770085600544      6.38958780622587     -0.79494223053323
  N   8.31931934434641      7.42571829860301     -0.81360319217484
  C   7.07210983129467      3.08642491263116      0.01253227688074
  N   5.86850020191898      2.42255753134384      0.00763826775463
  C   5.33301003195201      1.12365552649899     -0.05069876217360
  C   5.98029765764519     -0.08672099082794     -0.12441065078719
  S   5.03468750481989     -1.55451238261931     -0.17131136684955
  C   3.25526052531805     -1.04898203900772     -0.13369510251121
  O   2.48192832730319     -1.99220429419010     -0.17793480808501
  H   4.78284084284035      5.51731216222761      0.21111546384971
  H   6.86723184926835      6.18878274028022     -1.56847808352354
  H   8.94115189460491      7.43839463328560     -0.00419202545977
  H   8.02207979683004      2.58713610966469     -0.02834257383593
  H   7.05400310144457     -0.18789549090938     -0.14773063149979
