23
Coordinates from ORCA-job 16408optt
  Br  0.97423713696088     -0.15607467289200      0.12262313773989
  C   2.87562623353891     -0.25067021238091      0.08171002040350
  C   3.49431590193804     -1.44682213524060     -0.17811566132223
  O   2.63641901399005     -2.50455942691959     -0.37545556621889
  C   3.16111925380174     -3.64279617327481     -0.98167410335687
  C   2.11688995144226     -4.73024624637187     -1.11698053507368
  C   2.89338172992581     -5.99962608577229     -0.82145524528189
  O   2.55067715283570     -7.12745214835302     -1.01436266267648
  O   4.07874079470825     -5.68860324137191     -0.26255075094697
  C   4.21713924902993     -4.27827769416074     -0.08612410945104
  O   5.49044297701332     -3.94432711334718     -0.44685341895301
  C   5.88621452410223     -2.58701373570683     -0.41886960410929
  O   7.07782823900991     -2.43782215250521     -0.58008718752734
  C   4.94294239174821     -1.49562036332358     -0.21853132586991
  N   5.62112452272327     -0.29268002159775     -0.08718253699281
  C   4.97615283768538      0.81766168193205      0.16466673621191
  C   3.59736496278111      0.93732475699655      0.29871234659264
  H   3.62989592653461     -3.40045476916236     -1.94183691990216
  H   1.62723684831553     -4.79641671770719     -2.08458645441890
  H   1.35216547071088     -4.60760816862818     -0.34640575784069
  H   4.01191003608272     -4.03751729898933      0.96585505360803
  H   5.59433743141016      1.70777889187532      0.27043752772883
  H   3.10483741371104      1.87182304690146      0.51606701765736
