19
Coordinates from ORCA-job 16407optt
  Br  1.11646800548106      0.03992087205980      0.00575714010437
  C   2.98716255249542      0.00482097612602      0.00556333070793
  C   3.67926986532144     -1.15415976255964      0.00533114642762
  O   3.03015505410487     -2.32436902042251      0.00522023387092
  C   3.80192208553459     -3.45063233121090      0.00508169099575
  C   3.45492274862167     -4.78439456761700      0.00498515757108
  C   2.17499865175431     -5.45043991325821      0.00496352792055
  O   1.07967541393497     -4.92459299521398      0.00505318196608
  N   4.62581346133336     -5.55389385797961      0.00489849906966
  C   5.64564485750113     -4.73454332926883      0.00484730957720
  C   5.21488815460815     -3.36197187681578      0.00505733411505
  N   5.90815278549056     -2.22654533013725      0.00514078838241
  C   5.14927247492811     -1.10316246454076      0.00526214076066
  N   5.79378517801015      0.03757803923223      0.00534234345798
  O   5.05167648181921      1.19962775604745      0.00548577712049
  C   3.69020969078583      1.27369766695508      0.00563359246879
  O   3.18767672423590      2.36503899800431      0.00577596630973
  H   2.27415201969369     -6.55351293635919      0.00483775718347
  H   6.67015379434554     -5.07946592304122      0.00476308199025
