20
Coordinates from ORCA-job 16415optt
  Br  1.00395989131489     -0.42063597073966     -0.07674906127741
  C   2.86431701898239     -0.22102004953681     -0.01227719434334
  C   3.67583093452194     -1.32434681767864     -0.02260179422704
  O   3.12013170752145     -2.53364344996531     -0.08102045396326
  C   3.96352653448159     -3.63930050402671     -0.01949093172449
  C   5.29831357796585     -3.51788657363984      0.04718466425910
  N   5.95825453733270     -2.27883850332062     -0.00428724334169
  C   5.11352042833259     -1.15582518823395      0.02702046142676
  C   5.59497347296908      0.10367348459420      0.07454661695018
  N   4.75735761245415      1.18567616958031      0.10054423312118
  C   3.37604239494785      1.13249191571812      0.05401266050527
  O   2.72039474931589      2.16345600831262      0.07180282807831
  S   6.12629267541431     -5.03596576509705      0.09198787080548
  C   4.49280299481619     -5.95640899610950      0.03661974049177
  O   4.47809555337218     -7.17047272536914      0.06693494048109
  C   3.40434272129833     -4.97776562714733     -0.03921847310091
  O   2.19551276319861     -5.26909746007750     -0.09747905483948
  H   6.76132701874074     -2.21489179554743      0.60557601288062
  H   6.65562947664248      0.30987347252162      0.09293264640931
  H   5.13537393637666      2.11892837576269      0.13996153140853
