19
Coordinates from ORCA-job 16410optt
  Br  1.04036057724306      0.68986293337968      0.00099298542233
  C   2.88021730569570      0.35081290768422     -0.00242757610382
  C   3.77146849389631      1.36453389629125     -0.00294053927912
  O   3.54129360042104      2.68989725085807     -0.00139826563045
  C   4.78181510157829      3.31123117493830     -0.00287304662025
  C   5.78635319477704      2.34162850906236     -0.00515992454173
  N   5.12777188047166      1.10423769300666     -0.00531937872684
  C   5.54446557235773     -0.18478794037872     -0.00725462959364
  N   4.75622893952104     -1.20175132007710     -0.00716340447456
  C   3.36338606504172     -1.03286376710187     -0.00492799394476
  O   2.61177023802914     -1.98655763247933     -0.00507865170513
  C   7.08287470238499      2.90383978933475     -0.00745127078928
  N   8.28731641630549      2.46721677355203     -0.01061091787169
  C   6.75933646607525      4.43730670205032     -0.00576994180866
  O   7.58740573262085      5.29733785177101     -0.00662303976850
  C   5.22666678834325      4.64577277383756     -0.00291405749118
  O   4.65026301275071      5.73987836929998     -0.00173207312523
  H   6.62070825926951     -0.32044783246121     -0.00894806627963
  H   8.30829765321716      1.44785186743202     -0.01140020766783
