27
Coordinates from ORCA-job 16411optt
  Br  1.72165385827581      0.68636452265260      1.67199808911756
  C   3.26608060618016      0.37545690993814      0.63930028815489
  C   3.73896866745835     -0.86281367673870      0.49183928067618
  O   3.27042826925305     -1.99990398394926      1.08252895551135
  C   4.09294114534301     -3.07730398648160      0.66661095328754
  C   5.33983316755923     -2.43108129502662      0.08711368958566
  N   4.79827936803230     -1.16750275778504     -0.33859428951766
  N   5.73044021942854     -0.17811591034288     -0.70161154519675
  C   5.19580997602821      1.06479863886486     -0.64337288414150
  C   3.97500633150345      1.47575733208601     -0.05539465490834
  N   3.45841361171771      2.68817825060652     -0.01669924929912
  C   4.25140202466815     -4.14625549425745      1.74296639701165
  C   4.95135108140601     -5.22647307081510      0.92829871511113
  O   4.28170361218309     -5.14690583731687     -0.34643766158799
  C   3.34660554608317     -4.07245956359926     -0.23556515764139
  C   2.23762987853589     -4.51044070941502      0.71073124049058
  O   2.91888110811027     -4.59223178548362      1.97817971159907
  H   5.75876773870073     -2.99085656536152     -0.74893667803678
  H   6.12133217004365     -2.29335891595318      0.85338316073581
  H   5.84719013023032      1.83959837374406     -1.03586341478019
  H   4.07877776204891      3.31400128912987     -0.52975312682111
  H   4.71806560185994     -3.84716353511985      2.67709495458395
  H   4.79904988302507     -6.21502806954857      1.36374231510642
  H   6.02020532428287     -5.03687267860478      0.79359638997277
  H   3.05203063985288     -3.72305705923636     -1.22051117251533
  H   1.84477399454536     -5.49215685814846      0.44369074516715
  H   1.43437828364380     -3.77517356383788      0.77966494833443
