18
Coordinates from ORCA-job 16419optt
  Br  2.04209040322899     -1.34879351784668      2.65878457465326
  C   3.00041910946429     -0.58084187774113      1.23184482880758
  C   2.50290496750941      0.45157834462851      0.53177373912532
  O   1.27928266839354      0.92709778156257      0.89655352119157
  C   0.80375730564737      1.98905620615220      0.19095800703447
  C   1.50184058190643      2.53469743399982     -0.86508321495377
  N   2.72056116606015      2.07423765231252     -1.26774701280166
  C   3.20870919099386      1.08576953473623     -0.60464240315880
  N   4.46406555361279      0.60712775721777     -0.99468738893110
  C   5.06233489829342     -0.34542964522070     -0.42636302526544
  S   4.55557515537510     -1.32989760023739      0.94098537639570
  C   0.65962956525044      3.62468792333298     -1.34409511067735
  O   0.81120892734831      4.41651436481266     -2.26979735019117
  C   -0.48791948573383      3.54367104364575     -0.40231131662430
  N   -0.36783627693225      2.54772885337156      0.49961592289175
  C   -1.58546558515942      4.43532121774402     -0.41074975976155
  N   -2.46176222076364      5.18401921401915     -0.43346061639390
  H   6.03960407550501     -0.65254468648987     -0.79357877134061
