18
Coordinates from ORCA-job 16412optt
  Br  1.03839449097302      0.75611302421585     -0.02120782276675
  C   2.88247097920694      0.46496166491432     -0.02564388379585
  C   3.76411953122832      1.48191664801035     -0.02597026739362
  O   3.55649351581153      2.81030967986031     -0.02375431540131
  C   4.81118782863269      3.40230051459185     -0.02519551265349
  C   5.78294818531807      2.41379667646484     -0.02813296334635
  N   5.11666882226118      1.20487866761928     -0.02883892423133
  N   5.62372016498731     -0.02000598337003     -0.03166045144839
  N   4.82315377221779     -1.01588025472635     -0.03192203819006
  C   3.41936997636263     -0.89074484915948     -0.02915873482710
  O   2.71948440878835     -1.88533145134066     -0.02979142651767
  C   7.10198724810538      2.97041317726581     -0.03004482604245
  N   8.27535655295466      2.48659287255443     -0.03316345037039
  C   6.80668345301707      4.50684274201665     -0.02749666709545
  O   7.65190410334017      5.35333628625098     -0.02767815327054
  C   5.28804731804567      4.73492729917958     -0.02461069777404
  O   4.71842715378313      5.83144871570495     -0.02234484489859
  H   8.23758249496603      1.46612456994730     -0.03438501997662
