24
Coordinates from ORCA-job 16421optt
  Br  1.43240154610283      1.00651199177660     -0.42715559624738
  C   3.27606528419294      0.61739125909335     -0.32316670481604
  C   4.23421538329232      1.56690164985069     -0.23601986418698
  O   4.04290275686410      2.92735177464653     -0.34268131361533
  C   5.30918730983135      3.45178284240984     -0.24281347455044
  C   6.26057239100703      2.44507456601439     -0.07767196417196
  N   7.50849882866879      3.02194615517238      0.09661859233863
  C   7.28626241037862      4.40046310841871      0.24304187305173
  C   5.95587015313702      4.66480148278094     -0.01777883753467
  O   5.69488232701690      5.98972489176343     -0.24365703096403
  C   6.93068535757807      6.65514252867767      0.06608360648790
  C   8.06869054984528      5.62542179002789     -0.11273556981760
  C   5.60373419725196      1.20111748964013     -0.03246085974510
  C   5.95782520246344     -0.16051502446793      0.11785813340937
  C   4.97101813186241     -1.16641835282691      0.04599414462378
  O   5.13059134079802     -2.39482066501257      0.10182828852958
  N   3.63133133694920     -0.71003761549229     -0.11417485594937
  H   8.24266956330780      2.53260794141496      0.57903621729064
  H   7.00831855839306      7.52752006731189     -0.58063449368821
  H   6.89346755981121      6.97416915406301      1.11228906692709
  H   8.90981197878584      5.87158195653225      0.53823918066894
  H   8.43284443263820      5.60349785805144     -1.15065702631156
  H   6.98069098693723     -0.48018709106168      0.24912686718891
  H   2.98746241288620     -1.43602975878481     -0.38550837891791
