25
Coordinates from ORCA-job 16424optt
  Br  1.09576943365582     -0.05743108241034     -1.18315569732621
  C   2.89753171936145      0.08238168947921     -0.58178365053107
  C   3.82775479980258     -0.89844303438646     -0.94849987923877
  O   3.44112734473223     -2.13939082326797     -1.41243843022315
  C   4.43359815564064     -3.07567697738911     -0.97606360737904
  C   4.13500927075752     -3.68194510000549      0.40188974808321
  N   4.83964201338389     -2.82144067408587      1.34658130192588
  C   6.12900152560301     -2.45522243325413      0.76654724884577
  C   6.59156289632461     -1.05097551986674      1.22076537343910
  C   5.78341161386609     -0.10373436153621      0.34287304344051
  S   4.94706927861602      1.31339827217496      0.89576515719550
  C   3.20502569959962      1.17791087866754      0.24743879322897
  O   2.47049081447885      2.07135040682596      0.63365192403307
  C   5.16754421232752     -0.86484860883897     -0.65563692876838
  C   5.72648993690691     -2.26627116966128     -0.72193502449049
  C   6.81592775159831     -2.49937996453756     -1.65859398480624
  C   7.72224137153902     -2.71565697428963     -2.41525816226038
  H   4.52273902484786     -3.83543662610306     -1.74935638256717
  H   4.50961773326528     -4.71801518444189      0.40439197877399
  H   3.06320431256270     -3.69319786792881      0.60249319540044
  H   4.92015018199485     -3.21548404426277      2.27341883386994
  H   6.90128899084884     -3.22736241358912      0.89266306770379
  H   7.67488416225805     -0.95385697708038      1.08338464596784
  H   6.37651272202374     -0.89355387779343      2.28181417545921
  H   8.51740503400451     -2.88671753241842     -3.09895673977633
