25
Coordinates from ORCA-job 16425optt
  Br  1.16027663207907     -0.12465401270524      0.12420767299826
  C   3.03938435650393     -0.22401247484348      0.27366224134140
  C   3.76060156579891     -1.23715651724180     -0.38513738653594
  O   3.05341928712894     -2.31557846353618     -0.89111684138534
  C   3.84015193084598     -3.32464730538583     -1.50583162195913
  C   4.97134899730171     -2.63766190742557     -2.29951399717540
  N   5.87495180323158     -2.15928547469568     -1.22742446579817
  C   5.88241370103966     -3.30608357134994     -0.36546901265211
  C   6.64404972246706     -3.85329936602291      0.62295094744136
  N   5.92114734433240     -4.93156790000310      1.10108771983893
  C   4.72891921090172     -5.06144128238578      0.42938101262149
  C   4.68675321712843     -4.05787738574126     -0.49497131417652
  C   5.14424764307504     -1.12313852024753     -0.50815073652714
  N   5.87031825386298     -0.15789266741444      0.03592331750899
  N   5.13719594836972      0.66846997380894      0.87495293849228
  C   3.74203664206220      0.84674329593734      0.88693473261431
  N   3.18818832031572      1.87291133810217      1.46029104852142
  H   3.15902673112343     -3.93070896688700     -2.09916639700768
  H   4.61685425915259     -1.79921863331313     -2.89605512330459
  H   5.49847212399465     -3.36161919059267     -2.92245661860785
  H   7.58699351500903     -3.56831601637252      1.05450812599514
  H   6.24386778788445     -5.55984266074174      1.81309488773269
  H   4.03563985823930     -5.84426654821178      0.68750300586346
  H   5.66026035519272      1.48933623974949      1.12938733589185
  H   3.90948079295866      2.49180801751970      1.82640852826830
