25
Coordinates from ORCA-job 16428optt
  Br  1.37177880614247      0.14062650031321      0.84569131324612
  C   3.19478436558890      0.18677393034785      0.34856456881783
  C   3.78837101299507      1.30424355108974     -0.12938477124243
  O   3.01856841091216      2.43935491591924     -0.27192988511328
  C   3.56404641342336      3.65644494380544      0.19373799838154
  C   4.35242594343555      4.33776032686328     -0.92738369889664
  N   5.19596904041684      3.45386197587995     -1.71242778203896
  C   5.93471162509815      2.44444100113586     -0.94373324455575
  C   5.15241398721056      1.22760189862046     -0.52829434975093
  C   5.79523937404896     -0.02335966537411     -0.41979034463646
  C   5.16153229059566     -1.18169805480241      0.05353992265276
  O   5.58249094638803     -2.31541438284760      0.17711430344236
  O   3.78985058430123     -1.01604320942515      0.44992821441849
  C   6.53867333736216      2.99709698953272      0.33023168581214
  O   7.72687262199789      2.89655435196353      0.57159168213185
  C   5.67080012156432      3.60610510087788      1.42799439290180
  O   4.26950599132752      3.46092836850556      1.38024904149264
  H   2.69003137291607      4.26232194379505      0.44813952046796
  H   4.94324916443288      5.15502376754943     -0.50185174996084
  H   3.62957837271032      4.79329408321286     -1.60502832201879
  H   4.60544207377231      2.94663860195388     -2.36411533409827
  H   6.78976997768160      2.11417763785151     -1.53542068443412
  H   6.83132266782970     -0.13268043065062     -0.70829332944238
  H   5.94626366209126      4.66799520086133      1.48677779245755
  H   5.98230783575693      3.14095065302106      2.36309305996581
