21
Coordinates from ORCA-job 16427optt
  Br  1.07884097175006     -0.08849257239269      0.09409116330880
  C   2.95432986938756     -0.13182173876730      0.09392905619714
  C   3.67407864778370     -1.26027760733884      0.09358913313642
  O   3.23727337868453     -2.55322432847179      0.09329287157730
  C   4.36020082926745     -3.34274000486895      0.09309090419018
  C   4.43761102753059     -4.69065041248302      0.09286116015050
  N   5.65256489175211     -5.30008706294601      0.09265926019467
  C   6.71416748907687     -4.52365984560761      0.09268374329587
  Br  8.40872154476581     -5.42623167013299      0.09227062691832
  C   6.78759594220493     -3.09647922716048      0.09294420141308
  N   7.78047123884553     -2.26989742335235      0.09300289216818
  N   5.48102949171950     -2.52309388032193      0.09317576080396
  C   5.10610998136864     -1.21240144026771      0.09349769372325
  C   5.78326859250267     -0.01008278740335      0.09374624790261
  C   5.03147689638967      1.20952509513103      0.09415898760487
  O   5.48650588439030      2.35002154945753      0.09469776429875
  N   3.62702306703703      1.07234140176485      0.09402057761152
  H   3.54622870050119     -5.30103193310453      0.09283836432242
  H   8.65088969059486     -2.79121898171338      0.09281541548826
  H   6.85770323623444      0.03546179391305      0.09376551091986
  H   3.11290862821251      1.93804107606650      0.09486866477403
