26
Coordinates from ORCA-job 16429optt
  Br  2.68631569673129      0.28729615838223      2.73803220727948
  C   3.47230142280526      0.25049364976436      1.00237977744180
  C   4.22680261975177      1.27645155200901      0.56216609262207
  O   4.46874241979591      2.43694807286978      1.28582724425189
  C   5.15270933966554      3.25207321005504      0.36417168844333
  C   6.03612276368872      4.42823187589470      0.69247594491612
  N   6.61630731096026      4.65151066579869     -0.66383009292563
  C   6.39799015981524      3.44501090679500     -1.52568638562575
  C   6.02703102724061      2.34789951158225     -0.50908721529041
  C   7.35580694184677      1.69327809289282     -0.06504418111124
  N   8.45591426535420      2.16396610210832      0.37972221907071
  N   7.22681068502955      0.36130217738669     -0.41037030298650
  C   5.87784865957300     -0.02173671442407     -0.53995798178413
  C   5.09870361988099      1.16828103412092     -0.59374516704829
  C   5.39386091870916     -1.29286518360845     -0.20155382814794
  N   6.00850370956952     -2.44130948064011     -0.08703535330111
  S   3.61261132729266     -1.26550492080965      0.13873972040205
  H   4.39247944532258      3.63365430442187     -0.33164658617362
  H   6.78130917762862      4.17237578030489      1.45148938534582
  H   5.48637895719118      5.31116579430878      1.01984485637104
  H   7.59950947413880      4.87115678932161     -0.60517692573020
  H   7.29877273146645      3.22646910829812     -2.09610206959412
  H   5.57249361676917      3.61983783924172     -2.21832417817281
  H   8.37182176694688      3.15680528734134      0.56304830082509
  H   7.94279337610471     -0.28791987852950     -0.12263060888277
  H   6.95705856672107     -2.35587173488636     -0.45670656019489
