20
Coordinates from ORCA-job 16422optt
  Br  1.20215863923013      0.74937596332611      0.52609094843582
  C   3.02550817995387      0.46869782920293      0.19387954038277
  C   3.88804809243144      1.49226398181621      0.10608438375090
  O   3.66789250269002      2.83878712261620      0.22615154788441
  C   4.91091307370651      3.42186674067118      0.05320758304902
  C   5.83680408435499      2.44300223676578     -0.16467972063423
  N   7.07914368935516      2.96534608026691     -0.33376650909495
  C   6.93461729121780      4.34546247174734     -0.21429149106953
  C   5.58324843877498      4.65372840699420      0.03005199657019
  S   5.37911297619846      6.35311389150654      0.18173690748613
  C   7.07327435468121      6.62820858572448     -0.07978732876636
  C   7.77723191412068      5.47472517798730     -0.27714091267563
  N   5.21665164697437      1.23831377616924     -0.13662775672199
  N   5.78711261301771     -0.02911744865976     -0.30973117606807
  N   4.91896357237918     -1.03844719257909     -0.21644674683778
  C   3.58360441539777     -0.90378523674081      0.02057968129468
  O   2.83192958589898     -1.87607487422667      0.09556155005765
  H   7.91884169495766      2.44159028267667     -0.49908654742977
  H   7.45130440349794      7.63635983361172     -0.07202342647427
  H   8.84263883116107      5.44958237112347     -0.45576252313898
