26
Coordinates from ORCA-job 16436optt
  Br  8.59532893516284     -4.18453658091724      1.08883105725589
  C   7.55654388429350     -2.63202065575376      0.90607232842351
  C   8.06353641781450     -1.41055623804724      1.15892611854449
  O   9.32422944731615     -1.23147793442291      1.61352109626725
  C   9.56348477353253      0.16565790881086      1.82335521519586
  C   10.01705118672874      0.45434968510982      3.26697454671495
  N   9.04321994643223      1.38363511287208      3.84862556405761
  C   7.78538712989178      1.08357727229850      3.16072702964284
  C   8.18574561015867      0.81958936010116      1.70012026650584
  N   7.42171845065851     -0.21314107265477      1.01860807637922
  C   6.03844805721068     -0.11851479571407      0.77249481169259
  C   5.40697599098225      1.14987954038896      0.80404761762973
  O   5.94028203283178      2.26886785293821      1.02066686969396
  C   5.31260087920203     -1.28421929339897      0.52080202120753
  S   5.96052875907035     -2.82145704004310      0.21154426423980
  O   5.22532097711599     -3.83291624331290      0.94280092860774
  O   6.12311492030383     -3.10620424276990     -1.20197535570456
  H   10.27721847515932      0.49647508685781      1.06850357535927
  H   11.02560901324881      0.86091945756287      3.32718195706810
  H   9.99332941691516     -0.48889404920965      3.81730694750466
  H   9.31384382125782      2.33594170271161      3.63033580365459
  H   7.06314519510466      1.89047753323475      3.24848000862504
  H   7.35596981111229      0.16953495280673      3.58403626677772
  H   8.18067150924630      1.74408632016287      1.13188418140745
  H   4.32353925223421      1.08564472952282      0.61148437146054
  H   4.24615610701463     -1.23269836913456      0.35464443178829
