22
Coordinates from ORCA-job 16432optt
  Br  1.08014511817448      0.29997894190947     -0.03175804708892
  C   2.96592915189382      0.17571044913237     -0.03208401244708
  C   3.72068936470225      1.31205430913492     -0.03249537431714
  O   3.07972197714535      2.52581680530872     -0.03275513823028
  C   3.86064647676750      3.63711872730288     -0.03324629956454
  C   5.23930074622467      3.59486618218244     -0.03331595903040
  N   5.67117374074600      4.89299678204822     -0.03385545318918
  C   4.59265568936232      5.73945606836167     -0.03415094558759
  C   3.44069407471152      4.98169521627043     -0.03372650395590
  C   5.96789001315528      2.37731731516302     -0.03293168304887
  C   7.36747737817491      2.38114281880128     -0.03288018340514
  C   8.57744071711286      2.44590980955181     -0.03283721114519
  C   5.14288118776384      1.20815496740633     -0.03259109315038
  C   5.64603515855618     -0.10616284881136     -0.03229562018369
  N   4.94775994089401     -1.21108157252397     -0.03198864756410
  C   3.56075829793833     -1.15707442502405     -0.03192767413815
  O   2.88077491012493     -2.18108109297777     -0.03155951157378
  H   6.64105366257549      5.15543768594621     -0.03405937852938
  H   4.72230380271985      6.80753524237143     -0.03463335255904
  H   2.42854831301665      5.34805811122178     -0.03378893919354
  H   9.63927928876955      2.47238068929084     -0.03279092050921
  H   6.72984098947014     -0.21523018206669     -0.03232805158849
