26
Coordinates from ORCA-job 16431optt
  Br  1.03660852296865     -0.11042416464368     -1.52965122568662
  C   2.69415897025407     -0.16133857155663     -0.60896094109907
  C   3.20874371416352     -1.40898761286162     -0.32971853974860
  O   2.50078134568082     -2.52549336029715     -0.67751807817542
  C   3.15332554354445     -3.77436860957788     -0.46290493934888
  C   4.35641145731217     -3.94967445275711     -1.40246547319248
  N   5.53853464200047     -3.58588514673705     -0.58751271617970
  C   4.99160782456734     -2.90286438325542      0.61122397236728
  C   3.80104708344158     -3.80977804968271      0.91790448036794
  C   4.45289289899238     -1.53170575987129      0.31911126473918
  C   5.10251617590446     -0.33826960605407      0.62720939050146
  N   4.64241536667480      0.86151900263975      0.37628881513818
  C   3.42762482271931      1.01371094293265     -0.23272187161276
  C   2.97714905547799      2.36486671018341     -0.43616509558979
  O   1.86151938163107      2.71081075531141     -0.89471125226547
  C   3.92212187728090      3.41042762288518     -0.06107413775113
  C   4.62152891277246      4.35407708329102      0.20885158683649
  H   2.37962167690058     -4.52261630349259     -0.62174148833844
  H   4.22115728314045     -3.30611185743071     -2.27452066394599
  H   4.43656689177345     -4.98413735941851     -1.74520762120137
  H   6.12622897403954     -2.93798649776003     -1.09809107006007
  H   5.74813781046840     -2.87006471120758      1.39617477281357
  H   3.14345779222723     -3.42306052909775      1.69393485740608
  H   4.12833304368395     -4.82215801736962      1.15861304257237
  H   6.07136018364161     -0.38882116777000      1.12613619551363
  H   5.25014874873824      5.17433404359800      0.45351673593960
