28
Coordinates from ORCA-job 16447optt
  Br  1.24208198977449     -0.91654355884425     -1.74773706772325
  C   3.21088410760415     -0.13398243408393     -0.21224897703960
  C   3.65939006108641      1.14623636789491      0.00124106134258
  O   2.83286910323796      2.25230235464623     -0.02466512035158
  C   3.00501110297420      3.17433427398890     -1.10276661414344
  C   2.66798862815683      4.54529309385710     -0.49101396102876
  N   3.58463078417653      4.91893853622011      0.57396299824090
  C   4.97417338364772      4.90170489560296      0.14169829935061
  C   5.40730862392151      3.57678014329374     -0.48215984614894
  C   4.45240816133987      3.19812225501807     -1.60658258199593
  O   5.46998035100538      2.61652479316511      0.57289353996655
  C   5.01031697022907      1.34341843063526      0.33645488591846
  N   5.87526485694547      0.36703378463793      0.48823295132986
  C   5.41847586481982     -0.88024756867687      0.30858702132464
  C   4.11711627808478     -1.17533823360080     -0.05425666609186
  C   2.09310339737411      2.82958132273138     -2.19698690520856
  C   1.34976899451899      2.45367732501751     -3.05640001312680
  H   1.65277354348032      4.50335510910446     -0.09662796556487
  H   2.69976890519380      5.30219397142117     -1.27991098033306
  H   3.47895510484621      4.24451617920253      1.32597798249713
  H   5.61200099813809      5.11638813535345      1.00048360339364
  H   5.12178672546705      5.69899074687980     -0.59530922437271
  H   6.41845447013043      3.68060507336866     -0.89342788804183
  H   4.71368278297937      2.24060584492995     -2.05652603876987
  H   4.52584481156871      3.95415076233156     -2.39157992987232
  H   6.14783438800516     -1.67221707726766      0.45400197446969
  H   3.81188900811262     -2.20050046586834     -0.22826852156356
  H   0.68923660318061      2.05707593904085     -3.78906601645705
