24
Coordinates from ORCA-job 16446optt
  Br  1.10021959556054      0.15600904276397      0.06847583904488
  C   2.99568824028254      0.05324763049765      0.05499754451390
  C   3.72468605328454      1.22427903823928      0.05151659111401
  O   3.02374637738263      2.41293501530898      0.05392889175067
  C   3.70959344847187      3.57734608976779      0.05120978753467
  C   2.94314968363771      4.74509416507374      0.05280040472229
  N   3.46521302403765      5.96152082203540      0.05107537418356
  C   4.79609537103445      6.05696434738111      0.04759758156260
  C   5.62969536640302      4.95270918345476      0.04544749180906
  C   5.09538162150112      3.66807872014098      0.04710526584504
  C   5.94919168408319      2.43418041094172      0.04480063853978
  C   5.11815368269833      1.18801822194679      0.04608665404255
  N   5.77645063671335     -0.00017368209212      0.04338598916777
  C   5.08845134486178     -1.10924470058279      0.04508488004702
  C   3.66223099007797     -1.20711859801536      0.05061106394438
  C   3.04509893826900     -2.49116849125771      0.05104877408759
  O   3.65677546001692     -3.57959459830084      0.04771503201894
  H   1.86218560307009      4.65351274740698      0.05571064500099
  H   5.20736142881741      7.06024705625994      0.04637397986982
  H   6.70597678606885      5.08201317105703      0.04243789040493
  H   6.61463818145474      2.44945590423991      0.91710121603711
  H   6.61090846712370      2.45018654133495     -0.83031026714331
  H   5.63968204556462     -2.04374825463597      0.04238870086636
  H   1.94342596958394     -2.49074978296622      0.05441003103541
