22
Coordinates from ORCA-job 16442optt
  Br  2.86955255725185      0.27940347455559     -3.65569640506311
  C   3.58968625428882     -0.08998108609919     -1.94583156315906
  C   2.75608489937557     -0.22405719555472     -0.82831742475471
  O   1.39703832194990      0.02372272943865     -0.90218636559298
  C   1.04247606906302      1.20048252216040     -0.28893191880944
  C   0.73914319991222      1.30363539935501      1.04036453281149
  N   0.45066689159216      2.60788005442723      1.30520785166628
  C   0.57110661246172      3.34752353407574      0.14911103286057
  C   0.94894849221602      2.49874063101891     -0.85702041682093
  O   0.64231327193325      0.37261685730657      2.00342820611689
  C   1.46329984609172     -0.79221852988081      1.84420933770801
  N   0.92877375149877     -1.90195873281788      2.13659832615644
  N   2.76623705687374     -0.57395504796033      1.58390007879809
  C   3.33892551683249     -0.46549267923323      0.42312149550932
  O   4.70408956603877     -0.55687914550982      0.49854697315007
  N   5.55308819999683     -0.45577767399847     -0.62547202735980
  C   4.95613938855934     -0.23747612367274     -1.77552990990514
  H   0.20885476114119      2.95092669570780      2.21668042245188
  H   0.37804042055895      4.40565637574856      0.14572449604456
  H   1.14519790619207      2.75472826588975     -1.88488252743962
  H   -0.05407264531289     -1.75098324573127      2.34899658576172
  H   5.63640966148446     -0.17553707922577     -2.61602078013053
