22
Coordinates from ORCA-job 16452optt
  Br  1.37185064452753      0.69797890929176      0.00252189175263
  C   3.21404627115034      0.35309558368415     -0.06685289126194
  C   4.10197641889073      1.39017034240118     -0.07992383163631
  O   3.82775089206574      2.70179432906126     -0.06076346639173
  C   5.05919503316380      3.34657712746605     -0.20704328728793
  C   6.07536437786081      2.44273595970117     -0.16938846550664
  N   7.32853759330373      2.82486281756586      0.02347726811698
  C   7.29351483098217      4.18124848243170      0.15280789339208
  C   8.49279497992435      5.04718937940553      0.21441297327685
  C   8.53781700114494      5.59188834345483     -1.18882587432815
  O   8.14505208740644      6.70362075714969     -1.50067686339156
  S   5.65212304275739      4.91423501235707      0.23085013801075
  N   5.45440348214792      1.17993717470469     -0.14009526103286
  C   5.97003037553117     -0.07988065321018     -0.15518760171351
  C   5.14212613434448     -1.14422062776629     -0.12779196211786
  C   3.68359153092394     -1.01736011747109     -0.08716807818846
  O   2.93967590222740     -1.99651335657751     -0.06921727542708
  H   9.35910389090497      4.42372485449285      0.44671130274342
  H   8.40445496188891      5.86673696262293      0.93323760487908
  H   8.82722416828709      4.84946324801381     -1.95461544866038
  H   7.04907651674374     -0.12958549109186     -0.18954537763197
  H   5.54228986382207     -2.14769903768776     -0.13792338759539
