25
Coordinates from ORCA-job 16455optt
  Br  1.49831595236318      1.36292139667779      1.05668803801679
  C   3.09318406916939      0.60132454992439      0.40132881135285
  C   3.22143764438609     -0.71753620108609      0.09775848666381
  O   2.13626898945377     -1.56311438203705      0.26170338209564
  C   2.38913624024784     -2.93951111259962      0.10687133173274
  C   2.83152624859406     -3.61405448671813      1.40040647263763
  N   4.16933096984239     -3.16702218764225      1.73864392447571
  C   5.10755256120764     -3.38705956549110      0.65042636910036
  C   4.59161101085621     -2.64902550443975     -0.58983617414797
  O   3.29921622550479     -3.20490104846418     -0.92064996256033
  C   4.44645188136064     -1.18525356329156     -0.38738160462277
  C   5.52454543394534     -0.27717083917196     -0.50712717668993
  C   5.39157716540784      1.08654223444697     -0.21787831997086
  O   6.20659127076209      1.99006075233610     -0.29553146790407
  O   4.09294662581924      1.50527596730666      0.23140741323914
  C   1.06728096730757     -3.49896679828671     -0.41473697585618
  O   0.44359919835397     -4.37596483926319      0.11077430085177
  H   2.76259646179262     -4.69833796595970      1.22542192335177
  H   2.13360967466270     -3.34606759083189      2.19327132896985
  H   4.48770950776345     -3.58613825991869      2.60029040083973
  H   5.22764764972734     -4.45503274995111      0.39970817613820
  H   6.07823730316982     -2.97120256143943      0.92368262218323
  H   5.23930184025499     -2.87587723025632     -1.44028341778074
  H   6.49453487216121     -0.60206080357194     -0.85806194040598
  H   0.73779023588570     -3.01182721027120     -1.34989594171041
