25
Coordinates from ORCA-job 16467optt
  Br  0.98612131652691      0.41965873774737      1.09758921897342
  C   2.81496252342144      0.19624079019944      0.65284032150965
  C   3.29682827993924     -1.04376404431958      0.47297600241014
  O   2.60841934111616     -2.22923535328955      0.49526034281913
  C   3.35904014389123     -3.15683786838397     -0.29347416263172
  C   3.27291050275565     -4.53983788808349      0.33052999597003
  N   4.46263678523892     -4.61049467396119      1.16017619507966
  C   5.30364125626674     -3.51857133352257      1.06787472809796
  N   6.31140555960249     -3.23220586400838      1.77829296814645
  C   4.80580248935244     -2.67545940012372     -0.11038017554733
  N   4.62651310769589     -1.28168191459219      0.16650491309061
  C   5.45547475330988     -0.24790203221841     -0.40109510937267
  O   6.48469571371020     -0.60682552448897     -0.98750619889670
  C   4.95214817984618      1.04418316715131     -0.18722703411512
  C   3.69052838940161      1.31664404497780      0.42534646507495
  C   3.29721864448461      2.62686945087421      0.72367023030994
  C   2.97812983066570      3.77708796413001      0.94665618909234
  H   3.00892053213901     -3.12159698605339     -1.32681392661065
  H   3.27394636049887     -5.31689553814546     -0.43862809240303
  H   2.35544748293662     -4.62352151943992      0.91572156757449
  H   4.49213152693159     -5.19447679887008      1.97817767532476
  H   6.45656660768684     -3.92342534775095      2.51421190073517
  H   5.46646701244693     -2.80085902126490     -0.96984883596391
  H   5.57042468987217      1.86695516800843     -0.51401205778973
  H   2.70161897026250      4.77695178542820      1.17115687912214
