24
Coordinates from ORCA-job 16466optt
  Br  6.45889413379649      5.01401163578691     -2.51186881078162
  C   4.26864589381434      5.43677022139367     -3.58380774944866
  C   3.28365047122542      5.07712432547091     -2.68976619580904
  O   3.11099335215460      5.37437972352538     -1.35495446552668
  C   2.05745251163049      4.52994297068448     -0.90556801785097
  C   0.98242979244149      5.34462697629501     -0.20631614196929
  N   1.38296436123832      5.86971464858506      1.08723093267553
  C   2.23849176462769      5.18728097117483      1.72967627966298
  N   2.78208385965269      3.98412771921881      1.37204531180037
  C   2.62228277933892      3.46225343500982      0.03275911676465
  C   3.95357404875729      2.88305982912950     -0.43549267884396
  O   4.76717247507945      2.51351936517300      0.36495576732936
  O   1.49084709830229      3.88500671588743     -2.05220374873311
  C   2.30470798904282      4.21258900327371     -3.10588302853850
  N   2.16405735227394      3.73454707912580     -4.31807445257342
  C   3.12015230605405      4.19349611053087     -5.14313746859455
  N   4.12976536260432      4.99041468766555     -4.83625831318935
  H   0.09924188095377      4.70570404408218     -0.09930515622819
  H   0.71300986770146      6.17109211709532     -0.86502873517716
  H   2.58711100201481      5.55407824034089      2.69264960246066
  H   3.64509876219898      3.70079584217775      1.81623600943588
  H   1.90889556800116      2.62641586689701      0.01654152327188
  H   4.11753625549446      2.78560238505755     -1.52008884751224
  H   3.05394111160062      3.85944608641836     -6.17334073262450
