25
Coordinates from ORCA-job 16468optt
  Br  0.84013118187614      0.43319592847519      0.77286038422293
  C   2.96711846963177      0.18896868786195     -0.33784327310110
  C   3.71109304593429      1.30399982975241     -0.61749162862407
  O   3.10448201228241      2.46537192284394     -1.09928837738798
  C   3.63802092272314      3.61645857075325     -0.60658152518665
  C   2.85093747240662      4.66801758438443     -0.32172291082473
  N   3.40978744392261      5.84579756653108      0.11664182885316
  C   4.76246241046778      6.05134395407102      0.34603571322928
  N   5.27569368757976      7.15578660379972      0.77034793762303
  C   5.57810251712910      4.88813713675092      0.05706346142512
  C   5.05682020856796      3.73059468203416     -0.40737954579095
  C   5.87218065555851      2.51113449501939     -0.73976315505568
  C   5.09471892382775      1.25486323776586     -0.42289630538074
  N   5.75151151023172      0.20663061126742      0.01682444702716
  C   5.04068757919626     -0.93878844949933      0.29301378457235
  N   5.52800564609741     -2.05082608798475      0.71524389172345
  N   3.65291012500866     -0.88059821024365      0.08603905932248
  H   1.77628760291343      4.62666390430497     -0.41766365100910
  H   2.79213311148273      6.61270199540969      0.32570360642548
  H   4.56064470150536      7.86374484217340      0.92549084986780
  H   6.63942698343837      4.99870583464852      0.23340615932123
  H   6.82519593574801      2.50044156905333     -0.21390104682354
  H   6.08004996863606      2.51445453868098     -1.81634905306084
  H   6.53151970720301     -1.93352688343984      0.81520580185793
  H   3.14907817663098     -1.72027386441417      0.33700354677400
