25
Coordinates from ORCA-job 16475optt
  Br  1.53879038944676     -0.41520671587780      1.54079657244500
  C   3.21518778903161     -0.15765717735729      0.65759388226538
  C   3.62935770726265      1.09867413445710      0.35049710235615
  O   3.00106480651409      2.27973819908626      0.67107879883313
  C   3.75442639000488      3.33171241119463      0.06882028982738
  C   5.14378093409842      2.76123108141574     -0.24754044979586
  N   6.04934726168445      3.10335675544429      0.88935585359785
  C   6.21904925611372      4.39905606536557      1.26619527846303
  N   7.20079093414397      4.97788660866899      1.82948399025555
  O   5.11961734197534      5.16157696289187      0.99025164439020
  C   3.86601000445961      4.48742858859081      1.05800895072774
  C   2.84419479565030      5.58869867254747      0.87561734680349
  O   1.82529852797188      5.47767848691859      0.25769269342551
  C   4.84081575124986      1.32011191778486     -0.33460348151622
  C   5.64434673963291      0.16402644672240     -0.58770980321084
  C   5.12184662507733     -1.06160025152838     -0.23861460037356
  N   3.93061246589935     -1.28199278064624      0.35866392489107
  H   3.24945545975691      3.64906688077132     -0.84687604590111
  H   5.55420558900431      3.21357855802843     -1.15775883996143
  H   6.80625629444338      2.46015329222063      1.05758684502697
  H   7.98996573892651      4.34097587982250      1.88742557966500
  H   3.72499810143361      4.07255334844290      2.06514677555655
  H   3.12097741786141      6.53627367120523      1.37565527598667
  H   6.60827407658626      0.22364269779771     -1.07923011485500
  H   5.69432960177036     -1.95896373396763     -0.45853746890267
