26
Coordinates from ORCA-job 16479optt
  Br  2.84113219554860      0.70289053727016      3.32404213361980
  C   3.15225147718049     -0.19409356318600      1.52124918503108
  C   3.26119710584883      0.63816470687004      0.41987510318431
  O   2.54128051080912      1.80818915456760      0.32608288397218
  C   1.12104483151193      1.84386744853644      0.15997032283953
  C   0.93543183875581      3.04515236936176     -0.77312313470686
  N   1.70854342804711      2.74537588358788     -1.99381033522398
  C   1.72454135449230      1.37130866662605     -2.23070240078425
  O   0.46659899892790      0.86668499557766     -1.98308600763368
  C   0.47640235737078      0.64379281172303     -0.55240012985610
  N   2.67037943865176      0.56934054575426     -2.42911821131829
  C   4.01731019455610      0.88782881818149     -1.98173482126202
  C   4.13966351658304      0.26007964630916     -0.59757852260836
  N   5.04469095412951     -0.70153968432363     -0.44214704666457
  C   5.07015841362555     -1.37639134362401      0.73867041866331
  N   5.96746974446250     -2.17997240822322      1.15568349552278
  O   3.95958362867021     -1.26673473906552      1.59273743657006
  H   0.65742938214440      1.98374945261621      1.14000124816882
  H   1.33260388775481      3.95148322301108     -0.32010172076196
  H   -0.11639871039459      3.19474759324121     -1.01684881852276
  H   2.64854144867951      3.10721241681086     -1.92405599537972
  H   1.00790368437439     -0.28137519905622     -0.32464339476394
  H   -0.56789090037936      0.56218458738593     -0.25431800727698
  H   4.24560750861022      1.96045198676800     -1.93717107754544
  H   4.75172431743483      0.40886352284848     -2.62501211117024
  H   6.68379939260418     -2.21626142956870      0.43553950790729
