26
Coordinates from ORCA-job 16478optt
  Br  1.23720983012470     -0.06979980901831     -0.47127077540894
  C   3.11195454527602     -0.15596278665367     -0.19501339382972
  C   3.79865641724901     -1.32676896260189     -0.30488372148137
  O   3.30753350679358     -2.53972891463120     -0.68491601974597
  C   4.33017844269562     -3.51616305289484     -0.40583761427129
  C   4.06124044717054     -4.14010316242593      0.98233808691957
  N   4.43931049947093     -5.52644002001903      0.78763968579773
  C   4.45288356180071     -5.92942070359892     -0.51235401870643
  O   4.59934127628004     -7.07072618845484     -0.89248121651299
  C   4.23302646129455     -4.69443673040340     -1.36825212768664
  C   5.66731644120395     -2.73935746557690     -0.40757579170875
  C   6.29777419824083     -2.49912139734713     -1.75414444117042
  O   7.50803260840674     -2.26884675245829     -1.88458917315052
  C   5.17670258957837     -1.37604059100209     -0.02892537697478
  C   5.79296978536147     -0.18823912138257      0.40936830093706
  N   5.13060136740858      0.95931956285054      0.49834108614568
  C   3.83407243841970      1.00312125789214      0.18732501070402
  H   2.99998408697756     -4.03599265422676      1.22580512082855
  H   4.65390555630378     -3.65685304194976      1.75933529695583
  H   4.45898807214517     -6.21298269374446      1.52339620114861
  H   3.23422715557589     -4.75245305936579     -1.80491603908969
  H   4.96561301493891     -4.64849559794081     -2.17281269428715
  H   6.40262281999285     -3.18073374141657      0.27186192759839
  H   5.58081545841957     -2.31426626920064     -2.57560493093554
  H   6.84522971362171     -0.17397083899949      0.67000460437345
  H   3.32280970524917      1.95446273457067      0.26116201355133
