25
Coordinates from ORCA-job 16473optt
  Br  0.83293860453214      0.59181488477644      0.71117963908966
  C   3.01019478885389      0.15763040439218     -0.28425000990462
  C   3.79044322776238      1.18803892181175     -0.73197493843238
  O   3.24141586518848      2.29122538831074     -1.39565916905930
  C   3.21919965015142      3.41488331344064     -0.65682206463734
  C   2.17156112233447      4.15504647557095     -0.28703087281225
  N   2.69225893522807      5.30174922990167      0.33939464079155
  C   4.06505443055179      5.20293557641831      0.44690411609967
  N   4.93076268185175      5.94970182362504      1.03977172753697
  N   4.39816705305768      4.06000637504678     -0.24664202527708
  C   5.75947365948795      3.55184083730400     -0.18522480632815
  C   5.98927096752545      2.30313282180077     -1.03027060620450
  C   5.17371791565623      1.13350713496660     -0.54092564294527
  N   5.79737595026001      0.14822064275911      0.07065997189824
  C   5.06077375902194     -0.90513192968448      0.54275685855210
  O   5.51753682170379     -1.87616969480466      1.12143576739774
  N   3.66780833904512     -0.83971284938855      0.31990433685738
  H   1.12384408006422      3.97075466136569     -0.42984941824022
  H   2.16589178585875      5.87570602450514      0.97210182549243
  H   4.47610375206328      6.73869701403895      1.48657798833103
  H   6.00425235133997      3.34017919565243      0.85996216957446
  H   6.41866621118003      4.35895814918887     -0.50737156280540
  H   7.04207342014498      2.03498817769100     -0.96163612026587
  H   5.73934007037500      2.51416819084283     -2.07255770212785
  H   3.14187455676112     -1.61517076953225      0.70156589741902
