20
Coordinates from ORCA-job 16488optt
  Br  1.15162022542387      0.23857501780665      0.08051331731685
  C   3.03631284655453      0.15138112789837      0.08068968861570
  C   3.77033235783051      1.29651098554117      0.08047361656981
  O   3.10791241445192      2.49964610721778      0.08018958151226
  C   3.87227550140169      3.61698698422488      0.07984655503756
  C   3.47187784246312      4.92210884037671      0.07940228266341
  N   4.62869126892091      5.64074877928881      0.07917668407409
  N   5.73577140649138      4.88452265808962      0.07947866717039
  C   5.28507494755406      3.63474695395758      0.07985193053197
  C   5.99914840218002      2.39405388370259      0.08025171531236
  C   7.40599891621736      2.35131918532010      0.08026680731778
  N   8.56069477145573      2.30937911354109      0.08092077791909
  C   5.19644671952168      1.22246018138956      0.08053946285524
  C   5.72611784633864     -0.09007667324452      0.08090783878592
  N   5.04826832273426     -1.20269986821149      0.08114552272902
  C   3.65931902011282     -1.17185578827195      0.08102286861415
  O   2.99886667541564     -2.20513264407748      0.08126133481582
  H   2.49823924578578      5.37879992847947      0.07921333970332
  H   4.72259543579089      6.63903475817472      0.07884405290983
  H   6.81143583335516     -0.17950953120371      0.08100395554544
