19
Coordinates from ORCA-job 16487optt
  Br  1.52642000399192     -0.14771593688393     -0.00522625574867
  C   3.40495148865811     -0.11723503804893     -0.01140817167437
  C   4.12475859963003      1.06023598413644     -0.01678875454908
  O   3.56619117428556      2.31665125159747     -0.01905488969893
  C   4.63109884559986      3.17439684923506     -0.02372362721722
  C   5.83137671433575      2.49472443747005     -0.02460437748010
  N   6.78788984462163      3.44811609198868     -0.02923383910900
  N   6.26003180349000      4.69653282668266     -0.03137744397721
  C   4.93423769417531      4.53541478462746     -0.02790300951386
  C   5.54165293317035      1.10545884224894     -0.02027399985901
  C   6.28708495615394     -0.09960191729082     -0.01858433750440
  Br  8.17610767707316     -0.03479846526857     -0.02492808432101
  C   5.58620982955656     -1.27427436813075     -0.01299716349899
  C   4.16277991186751     -1.31398304283162     -0.00957469180003
  N   3.80148933439651     -2.59977337609990     -0.00451777713089
  N   4.81360530574296     -3.38648976196025     -0.00427631788674
  O   6.02267670105166     -2.52581122136502     -0.00969332542005
  H   7.78386041058035      3.32830315017932     -0.03016067973392
  H   4.29157677161879      5.39984890971369     -0.02867325387650
