19
Coordinates from ORCA-job 16482optt
  Br  1.21734704715015     -0.52508826374928      0.09926128996533
  C   3.06679186394320     -0.29059901428409      0.02297293707870
  C   3.91140610512893     -1.33934594996959      0.00654052108681
  O   3.66771157394163     -2.65421380558975      0.04504358600086
  C   4.91660848638912     -3.27027133446192      0.08333783729455
  C   5.90118161525244     -2.37690693673594      0.04306196963683
  N   7.22685701534717     -2.69556593307943     -0.15338904416555
  C   7.49042263180496     -4.12985930325790     -0.08717871130585
  O   8.67757596637784     -4.46977352365602     -0.06432020498625
  C   6.41062328227904     -5.08232254303637     -0.04591085632940
  O   6.47401332520058     -6.29142765059357     -0.06370331100305
  O   4.99434416905478     -4.57116983153699      0.04411873630605
  N   5.26864020378567     -1.12459647491070     -0.03105203416410
  N   5.83262699512647      0.07217900533674     -0.01499175513841
  N   5.08766213436589      1.08901550671472     -0.02025027787077
  C   3.66208976999284      1.02870283503963     -0.02569940215499
  N   2.97059678465920      2.10284603259404     -0.05463467123080
  H   7.90103217373607     -2.19423386709961      0.41440416881978
  H   3.61046885646337      2.89463105227623     -0.07661077783972
