21
Coordinates from ORCA-job 16484optt
  Br  1.02851554068876      0.09268103689121     -0.08604325715707
  C   2.90744068955505      0.06962116380802     -0.08486880399379
  C   3.64099286048632      1.23435278026644     -0.08429922303906
  O   3.14654866597854      2.48581902508830     -0.08421374899827
  C   4.23311690412372      3.33165022999114     -0.08378015688643
  C   5.39530749739303      2.59255404176103     -0.08357175032781
  N   6.62556695062949      3.22995368764309     -0.08324684634967
  C   6.72717171900289      4.59481113798093     -0.08328433918791
  O   7.79883893228447      5.17791561699606     -0.08330866113883
  N   5.52422186752604      5.26354274420595     -0.08327017896664
  C   4.19559554333743      4.74298575972905     -0.08356301225217
  N   3.15021952083355      5.49043806789322     -0.08361071385714
  C   5.05807481182552      1.22653870379115     -0.08383305969577
  C   5.71192563236601     -0.00058175970398     -0.08384224386920
  O   4.96974168687169     -1.16114140542861     -0.08404803835454
  C   3.58475235404778     -1.19575360520852     -0.08465912363970
  O   3.07404342229706     -2.29177835381832     -0.08490441561804
  H   7.49188361823802      2.71977864186580     -0.08350779217625
  H   5.62536050171960      6.26621503073218     -0.08331324399994
  H   3.40340880302097      6.47550824765676     -0.08340354059487
  H   6.77327247777402     -0.17911079214093     -0.08342784989691
