23
Coordinates from ORCA-job 16481optt
  Br  2.03074895150292     -2.50963656636763     -0.42449878313296
  C   3.14270804236574     -0.24143013333478     -0.43295503937581
  C   2.83730261187422      0.85811760120878     -1.16612236717729
  O   1.88479424783223      0.84178142952786     -2.21103630871324
  C   0.77906935526841      1.37271095916760     -1.52894508894470
  C   0.14318595000646      0.70355676172504     -0.51372179150788
  N   -0.16699845867101      1.64515267468267      0.44160201978640
  C   0.27364003977748      2.87217799078178      0.02949926614474
  O   0.50214493577887      3.85525591900518      0.94884437056781
  C   1.89601573447133      4.19585629979933      1.00006565772640
  O   2.72534494433427      3.21232227192949      1.56239068436447
  C   3.11687814549596      2.10486748749613      0.84185245906652
  N   3.32539050047781      1.04666836385541      1.54661838942183
  N   3.55683583487527     -0.07635308472682      0.83247347714595
  C   3.26034256669473      2.14341122518561     -0.63178882347624
  O   3.55744857374716      3.16567749486562     -1.24868245987886
  C   0.73416212062226      2.76954570844635     -1.25004614736596
  H   0.09128268767028     -0.35451861844734     -0.31470688466816
  H   -0.52939184170282      1.45290171546239      1.35857946433853
  H   1.94583069364902      5.03617313478591      1.68616664556479
  H   2.24388122265893      4.45845807268413      0.00367242606203
  H   3.71069636692066     -0.89653359590159      1.39698373959776
  H   1.26768677434976      3.52283688816881     -1.80024490554613
