21
Coordinates from ORCA-job 16483optt
  Br  1.13388939935275      0.13660394500462     -0.10452820621254
  C   3.01766707801169      0.06948811304832     -0.10152229648561
  C   3.74252248810894      1.21801896266688     -0.10030643283322
  O   3.11306412056338      2.41934381196665     -0.10061818318155
  C   3.84892627902161      3.57626615362172     -0.09972713869085
  C   3.20301934116155      4.75433029078412     -0.09968281019270
  N   3.94447217522060      5.90316220150076     -0.09901974323750
  C   5.35100814318992      5.92562031312707     -0.09864652766327
  O   5.89923776084897      7.01911228869088     -0.09852507405313
  N   5.98618164955562      4.72525116773050     -0.09845338797870
  C   5.29164752643527      3.58315933030150     -0.09885971281392
  C   5.92436546609638      2.33215095142019     -0.09837938565732
  C   5.16696650932570      1.15748721999678     -0.09888408720681
  C   5.71918516476647     -0.14881224056198     -0.09838283827502
  N   5.05727978042831     -1.26690527925143     -0.09898316860833
  C   3.66177718845819     -1.24639645762035     -0.10044753187176
  O   3.01889453843025     -2.28735045153099     -0.10076844475000
  H   2.12535867760405      4.83239898481802     -0.10016764639974
  H   3.50256950282348      6.80689708999718     -0.09910720440549
  H   7.00636211693283      2.29602083562404     -0.09761301299480
  H   6.80660509366401     -0.22284723133450     -0.09737716648771
