17
Coordinates from ORCA-job 16496opt
  Br  1.33771685467632      0.32852461279684      0.15556935777869
  C   3.19885100196488      0.14842337137175      0.04873656753076
  C   3.98790925814873      1.26281397288890     -0.11054284418409
  O   3.56838550510361      2.50400118115629     -0.20608268713311
  C   4.73018928712251      3.32806379556386     -0.57368427459110
  C   5.85065673018257      2.51736030568075     -0.28379948345782
  N   6.87426198040313      3.02865290019151      0.37170909588048
  N   6.76796856413049      4.30228863734494      0.59358001009597
  S   5.17083432701701      4.87006926625376      0.04937110328140
  N   5.35679618227100      1.19030538063557     -0.20542099330430
  C   5.96086439592902     -0.02042396768000     -0.13956380904875
  N   7.21975738273681     -0.36929574973125     -0.22096168875086
  N   7.20117331797985     -1.71611545116748     -0.09738039820138
  N   6.02468409694664     -2.18273938139088      0.05154856120744
  N   5.19290235277049     -1.11948224396617      0.03101381123074
  C   3.75963626964267     -1.16772377802186      0.14394894629861
  O   3.19141249297393     -2.21872285192656      0.28895872536734
