23
Coordinates from ORCA-job 16492opt
  Br  1.23123772481441     -0.15026379133584     -1.12846430361133
  C   3.05882821300224     -0.06359884635302     -0.54818589776146
  C   3.62048262935198      1.14699016457207     -0.23823185102254
  O   2.78641194339225      2.16442586855406      0.29781703574748
  C   3.22041227804753      3.39140250381593      0.14150865613214
  C   4.31520613241327      3.98847657476365     -0.46569166011139
  N   4.14281935543365      5.34566626576180     -0.35387504039788
  N   3.06332145704148      5.60683797268453      0.27114726218543
  N   2.48144421163393      4.42358364498176      0.58209441056636
  C   5.48459599324750      3.40249972679724     -1.13206074919048
  O   6.22081033389052      4.07090337136762     -1.82418774826334
  C   5.78852838114649      1.92634456641876     -0.93394317648382
  N   4.98187207246560      1.25202325342767      0.08475355097890
  C   5.62712016894347      0.05602308958901      0.61102658607564
  N   6.69683618688315      0.14549316585988      1.33314642573800
  C   5.04499340558286     -1.18022050161856      0.21142586096982
  C   3.81326790744989     -1.23057322737102     -0.43403694909835
  H   1.59711534730855      4.38508300766976      1.05959903613056
  H   6.84278489876929      1.86375310398980     -0.66302886521177
  H   5.66879739500011      1.43813243942419     -1.90986650230977
  H   6.90987126061990      1.12519009348452      1.50898086673210
  H   5.58381380030952     -2.08187678481383      0.46515527992702
  H   3.42042890325206     -2.16429566167011     -0.81408222772131
