18
Coordinates from ORCA-job 16494optt
  Br  0.91067646121051      0.01987585291617     -0.18308208500385
  C   2.77597717777648     -0.07868473987409     -0.00672487079887
  C   3.46595912605330     -1.29053155495671     -0.06181290564398
  O   2.71973492322130     -2.44577440353610     -0.24607417235920
  C   3.25474665231120     -3.66669739626669     -0.10171584358404
  C   4.69797638813374     -3.71524955427860      0.09578387000576
  N   5.18426179029231     -4.91965404143127      0.23693133997166
  N   5.60598418053819     -5.94473425234150      0.36194969496148
  O   2.55727704601403     -4.64804775605776     -0.14228027916579
  C   5.64832711377725     -2.55151189777944      0.01282883675101
  C   6.47406092113855     -2.63450871312568     -1.21225819215480
  N   7.11357651215112     -2.77335531573683     -2.15357440465290
  C   4.83896341820308     -1.28317008925475      0.07382931487604
  N   5.58026609251741     -0.19808560930537      0.28349964933632
  O   4.87865202676414      1.01066546488744      0.32174792584196
  C   3.50166708190045      1.12955095436582      0.19295402251405
  O   3.05958958094883      2.25303791149012      0.26772291014306
  H   6.34530350704801     -2.55012485971472      0.85727518896209
