25
Coordinates from ORCA-job 16508optt
  Br  1.51099778016040     -0.46546745196974     -2.29348804850295
  C   2.98176944086467     -0.24028018422583     -1.14088169183079
  C   3.47651918075244     -1.32961707515134     -0.39513943441952
  O   2.93765697795136     -2.59484801814078     -0.63783200208248
  C   3.71426970239435     -3.55996429185804     -0.01409377904442
  C   3.99917626089858     -3.14671035528226      1.41611864203662
  O   4.50241087178507     -4.29843360438284      2.04108028497797
  C   4.04702259312324     -5.43973884227360      1.31605148071268
  C   3.08525314509824     -4.92498441717405      0.21486364153282
  C   3.01199667209452     -5.80934203757504     -0.93708738883406
  C   2.96861097001189     -6.55264873241830     -1.87585257897194
  O   4.91239203272551     -2.10781619280983      1.42951082379250
  C   4.44324323412454     -1.09166582603029      0.58788391163816
  N   4.97393423508324      0.08280601810017      0.84164561630932
  N   4.62893463410198      1.06333115320169     -0.07699778561970
  C   3.50792772449446      1.05925785971476     -0.92852161065433
  N   3.06690855789055      2.14526742501345     -1.48753841191273
  H   4.68079360871099     -3.67518988765913     -0.52501001375276
  H   3.06641107106436     -2.82181324507618      1.90413346180641
  H   3.55393999759334     -6.13214449148229      1.99873775129455
  H   4.90128310807614     -5.94289475925606      0.85641744614572
  H   2.08235633908802     -4.77748044960733      0.62465985660938
  H   2.92312513964148     -7.18849416987803     -2.72640460702498
  H   4.87999053440976      1.97627164734734      0.26409846128554
  H   3.61907618786076      2.94259992887363     -1.17735402549102
