24
Coordinates from ORCA-job 16502optt
  Br  1.73946989488898      1.91994649858268      0.64093543617154
  C   3.38426077259292      1.05749481055728      0.33500676931397
  C   4.56228659417369      1.78756079612577      0.17204627617882
  O   4.63986721616061      3.15458687555265      0.29909492498342
  C   5.96070282283102      3.44704261022690      0.13228294641149
  C   6.68398224384097      2.30622744817502     -0.09579143956868
  O   7.99083114548768      2.59975817576203     -0.37426988050432
  C   8.02517356356176      3.96575674689739     -0.36659055947687
  C   6.83045851868025      4.54391881476981     -0.06990944235534
  C   7.06104312937142      6.00620297203718      0.16593628732743
  N   8.47271900652319      6.22680230130570     -0.25929477946755
  C   9.16984057331373      4.91616367675389     -0.27866894567619
  C   5.81124759160025      1.18722317366350     -0.08931752838255
  C   5.89339180733387     -0.21072934784322     -0.17850626198032
  N   4.66342230223083     -0.89381903511294     -0.13701886866009
  C   3.41072854309645     -0.36176738941570      0.17473810156606
  O   2.45046021912740     -1.13104232967917      0.27470212832090
  H   6.94950535032025      6.25050622103311      1.22671075982193
  H   6.40245491523725      6.67204879313764     -0.39307058562867
  H   8.44475973065251      6.55985071350073     -1.21413896901814
  H   9.74751077811819      4.78225474060535      0.64475758442678
  H   9.87394038981889      4.88076038464481     -1.11291934076928
  H   6.74317759678717     -0.74968742011825     -0.56439505770672
  H   4.65776529425053     -1.90006023116223     -0.14331955532763
