26
Coordinates from ORCA-job 16504optt
  Br  0.90694362252732     -0.37366494039937      0.85658155115354
  C   2.75222000678664     -0.31442644793621      0.39064225156485
  C   3.31224541850223     -1.35838029034033     -0.28385629032664
  O   2.52398724558535     -2.44899222267671     -0.61461250033342
  C   3.24656299438219     -3.64750619104980     -0.79744789553758
  C   4.11171960305246     -3.98765397908709      0.44330040117621
  O   5.42462022222126     -3.58407284116788      0.11493558215107
  C   5.28268199426777     -2.66905507837203     -1.04184738831340
  C   4.28662766914997     -3.47235863337702     -1.87989078915543
  C   4.69229025637017     -1.36348240021656     -0.67195809076905
  C   5.42494536752664     -0.19759867365175     -0.27704146806752
  Br  7.25257526974934     -0.03890568082308     -0.85596311861519
  C   4.85384053810280      0.87543998438990      0.35048004319714
  C   3.49655158669308      0.85530268898486      0.71555159751724
  O   2.29681360140014     -4.63701371059532     -1.12764895387126
  C   1.32096739766432     -4.86311341279156     -0.22161352149250
  N   0.45921367263811     -5.77165097340952     -0.34427284509614
  H   4.09609958552079     -5.06316915878744      0.63712089392568
  H   3.73304773230226     -3.44750006185246      1.31826596547409
  H   6.27688273175674     -2.57566465597089     -1.46796217107924
  H   4.70104897367586     -4.43939936764648     -2.16422666326008
  H   3.88816089382597     -2.94048662962667     -2.73955343179412
  H   5.45306038225037      1.75178674375958      0.56267314973138
  H   3.04751688918967      1.65156829713185      1.28794817650509
  H   1.31842880361403     -4.18934645938367      0.63309921203219
  H   0.61794754124444     -6.28165590510431     -1.21470369671689
