16
Coordinates from ORCA-job 16500optt
  Br  1.01425891003605     -0.17764719886590      0.09940544627303
  C   2.90410388662838     -0.09217215927907      0.08615264297087
  C   3.63874113637085     -1.29443477028018      0.08420704387134
  O   2.83695466933821     -2.47001159872041      0.08256992518234
  C   3.58168480438180     -3.55067144987821      0.08171167893459
  C   4.93034186018785     -3.61917845652499      0.08231779952015
  O   5.75724795563158     -2.56016957366295      0.08350008017837
  C   5.04679776141985     -1.33732035261110      0.08313953893920
  N   5.85310137663155     -0.32257708830490      0.08229888102070
  S   5.27310289001914      1.23558966861395      0.07593799741434
  C   3.48269739121045      1.19754964675624      0.08180459168413
  N   2.83944726480522      2.31407129384478      0.08144722964614
  N   5.25933445017425     -4.92522900435818      0.08089622616167
  N   4.21771573273478     -5.63801870675873      0.07966044109420
  O   3.08969012785407     -4.76753187241487      0.07993856944836
  H   3.48377978257593      3.10275162244455      0.07801190766057
