23
Coordinates from ORCA-job 16505optt
  Br  0.27293531418205     -0.59238857782519      1.18610304520080
  C   2.51236857545635     -0.16675866048612     -0.00140719784533
  C   3.11243686338719      0.97885979785933     -0.47096096087231
  O   2.35338680962707      2.11815477478041     -0.63762757794662
  C   3.07020001542598      3.28431312116950     -1.00449049853895
  C   4.04043702616124      3.71857374184743      0.10469760448587
  O   5.31636692656568      3.18644426030685     -0.25180682198489
  C   5.08998625814375      2.26439341474315     -1.32198490781823
  C   4.03052022158704      2.98098762449226     -2.15269616496487
  C   4.48751519893352      0.97794259277129     -0.80255011302062
  N   5.27299736352290     -0.08127393880792     -0.69053881818310
  C   4.70961810853065     -1.19285983457451     -0.22350934712709
  C   3.34499171947096     -1.25380601941000      0.12899097939794
  S   2.97616718313575     -2.84798753413005      0.70687434889448
  C   4.63301321116839     -3.27566326976842      0.41921665645781
  N   5.41931645785118     -2.37054167411474     -0.04837679730587
  H   2.31477832153337      4.03595372895791     -1.22272991736288
  H   3.70801298921704      3.31906611327482      1.06538066734413
  H   4.12580484896968      4.80553474302942      0.17193632425753
  H   6.04376155034598      2.06953585070460     -1.80623003793329
  H   3.56959330180688      2.36216456754767     -2.92064908776174
  H   4.43075481569636      3.89817553167918     -2.58609260976013
  H   4.97203691928085     -4.27982035404693      0.64145123238739
