25
Coordinates from ORCA-job 16512optt
  Br  2.00605008490683      0.70125630092502     -2.01150511027455
  C   3.16406349862775     -0.05313997598325     -0.73417203812972
  C   3.40771436133950     -1.43749093683425     -0.67479762192956
  O   2.68059253274490     -2.26591954568462     -1.51172158349927
  C   3.08501709310917     -3.61715178467853     -1.48996767822452
  C   4.51900609790651     -3.80467030629699     -2.01987119042580
  O   5.36454248173328     -3.88365903318822     -0.87597314813354
  C   4.58002996735862     -3.43287914687863      0.23151578011599
  C   3.23312539015423     -4.09188947478240     -0.04618993843236
  O   3.28237499299801     -5.52058141672386     -0.08473936368930
  C   3.43746969173285     -6.14686859788239      1.09083610763297
  N   3.53688695432398     -7.39374068767292      1.22727881829346
  C   4.33712360461377     -1.94993295319876      0.21346785148072
  N   5.04884308840332     -1.20373367328262      1.07766009843109
  N   4.75370508927481      0.13601626405399      0.99667696302169
  C   3.89008343547949      0.80856111787202      0.13441375786973
  O   3.82933267624029      2.03778427696354      0.20266058251316
  H   2.33945089280337     -4.17778194889116     -2.04955679852870
  H   4.78629712709943     -2.94819804946441     -2.64338921026093
  H   4.62578289833707     -4.72877418303642     -2.59013320554570
  H   5.08622538516672     -3.73081221296029      1.14836980006180
  H   2.42521799355201     -3.75054373873935      0.60108817638867
  H   3.45886095160048     -5.49036459808537      1.96147579033287
  H   3.50659600467125     -7.84627048965778      0.31246171201282
  H   5.28660770582227      0.73178479410771      1.60711144891903
