27
Coordinates from ORCA-job 16515optt
  Br  1.38918525696240      0.78016395097321      0.44643669944173
  C   3.23080446442553      0.33865901148730      0.27220273298739
  C   3.58556231733394     -0.98204701716512     -0.07714130251585
  O   2.61430831383923     -1.93508824659294     -0.29956565756990
  C   3.26787789478615     -3.18295479685163     -0.52997888206447
  C   2.50656773572126     -3.84444247993868     -1.66672460528573
  O   3.02560947127325     -5.11082451308943     -2.02408235838589
  C   3.96691587314451     -5.07656845334076     -3.07398791529749
  C   5.32132565972168     -4.49995417106066     -2.69110225947943
  C   5.28156398630741     -3.05333340785290     -2.19960952256027
  C   4.76964606925006     -2.89048839882809     -0.76336571513163
  C   4.86156905787584     -1.46112716814093     -0.28164696496919
  C   6.01137340022342     -0.70237090632619     -0.14443617917082
  S   5.93561597996170      0.97525924115039      0.33871615974321
  C   4.14189887518129      1.38083590441157      0.48830832244884
  O   3.92848653191720      2.54988593341861      0.77996211630783
  H   3.15875973565907     -3.79326056720476      0.37259063423315
  H   1.47315080357814     -3.99358779659270     -1.34959179683183
  H   2.49421894867654     -3.17142536980428     -2.53150905316897
  H   4.08129397789937     -6.11127553356997     -3.40377904073951
  H   3.55097370338593     -4.50199750512634     -3.91388266345366
  H   5.96210984846443     -4.57301257815058     -3.57601471672035
  H   5.77025458686710     -5.13311975051622     -1.91906765425239
  H   4.68555323810103     -2.43215951764603     -2.87613826955468
  H   6.29116693280630     -2.63757925305607     -2.22377614997196
  H   5.36633464180571     -3.55873560462285     -0.13261278227983
  H   7.00187269483141     -1.09945100596390     -0.31820317575824
