20
Coordinates from ORCA-job 16526optt
  Br  1.05820519995649      0.05325000180998      0.07528001974440
  C   2.94165915485168      0.01781650326158      0.07367292356945
  C   3.60309371682773     -1.16825726596032      0.07284511050941
  O   2.93103846773281     -2.34949342727433      0.07279068018939
  C   3.68671058945437     -3.49382280500563      0.07221381412878
  C   5.06895461293086     -3.42475543259447      0.07175974098729
  O   5.75547777906074     -4.58841322569580      0.07135341935580
  C   5.11132832459043     -5.83221214597485      0.07137745153972
  N   5.83508867239233     -6.87401307874182      0.07120817949759
  N   3.74006219946083     -5.87844813631272      0.07154693380259
  C   3.08038193759853     -4.74889402395711      0.07199357735245
  N   5.77068754679442     -2.31332494191814      0.07160445809105
  C   5.03365064610685     -1.17845172967026      0.07207411668127
  C   5.66122086827633      0.08958567253980      0.07199036414907
  N   5.05681795618486      1.23973076285410      0.07252593530612
  C   3.66037563998905      1.29467079166769      0.07334231773794
  O   3.07991484521430      2.36983618630131      0.07374683705541
  H   6.81479212575241     -6.60242942035496      0.07110572684516
  H   1.99425290644127     -4.80130479514893      0.07214069380296
  H   6.74928681038368      0.08493051017489      0.07142769965413
