27
Coordinates from ORCA-job 16522optt
  Br  0.74661088063804      0.57204897657071      0.59196133947766
  C   3.06261630059224     -0.12335164325463     -0.11312792117450
  C   3.63788792033822     -1.35380293324614     -0.08273481541325
  O   2.86351145512181     -2.51526882128740     -0.09850656233005
  C   3.57374067663329     -3.63674799713365     -0.52854955833625
  C   2.69107811499057     -4.84217231068101     -0.29004034676409
  O   3.34547093846782     -6.07356356581328     -0.61419912499780
  C   4.63290460139794     -6.27033075506799     -0.21882699096363
  N   5.06376223434330     -7.42503778840392      0.04890504291665
  C   5.55077687774572     -5.07517569107467     -0.23521543364706
  C   4.86619384561070     -3.80979222888662      0.25517132262639
  N   5.67449943313919     -2.63940890904265      0.02445537485411
  C   5.05047576089807     -1.40336191073558      0.03390289457749
  N   5.82418081879986     -0.34810363471465      0.11949646673529
  C   5.25735674786907      0.90099134737067      0.08688229926273
  N   5.88770817320904      2.02057429951428      0.15017592926605
  N   3.86234768645040      0.94586592964058     -0.02827435737163
  H   3.83042675131933     -3.55180310153011     -1.59525144115919
  H   1.79933002936752     -4.79921208224692     -0.91023006000574
  H   2.38679572548332     -4.85697298949669      0.76028871250376
  H   4.30386993038515     -8.10095783008270     -0.03063980310366
  H   5.86254263038958     -4.91075124155953     -1.27176805408431
  H   6.43753823355172     -5.32140737001817      0.34596551094289
  H   4.59250122377854     -3.92081773306076      1.31532673101014
  H   6.62204964767170     -2.61980825821532      0.37319888685540
  H   6.87904113563176      1.81685798059411      0.23118398657903
  H   3.44278222617597      1.86551026186210     -0.00255002825642
