21
Coordinates from ORCA-job 16524optt
  Br  0.80615836400950     -1.22098002414333      0.04037329963713
  C   2.06750597462693      0.19902659429706     -0.08079715031064
  C   3.09497306848970      0.40672254550533      0.91432300254403
  O   2.59145533210771      0.87333577238106      2.26587478335077
  C   1.54779495889870      1.68279015269665      2.00477455008310
  C   0.22469007978441      1.39455143133196      2.03757942950716
  O   -0.40001450453895      2.21102075636253      1.12239032058913
  C   0.60317995385229      2.92993225053370      0.59399613212883
  N   0.35202456587029      3.54542812720578     -0.63564102677648
  C   0.35017802029253      2.70531458274021     -1.81009833757194
  N   -0.09319449868065      3.10489433578780     -2.91842207909312
  O   0.75798918815391      1.42123572011243     -1.68543488434559
  C   1.97089879452376      1.18273687180070     -1.03218930589619
  N   2.96431178097068      2.00459628958256     -1.33764177695694
  C   4.07130187627522      1.82385048323131     -0.59236719084736
  N   4.18797229635034      1.12409664415553      0.50377687135589
  N   1.74154410830733      2.76670231646008      1.15693423396981
  H   -0.36111519795400      0.61570971978887      2.48585221554346
  H   0.98549999305609      4.32107920035167     -0.78096827423689
  H   -0.50735291326309      4.02547034971796     -2.79888240654779
  H   4.95419875886726      2.36248588010009     -0.92743240612635
