26
Coordinates from ORCA-job 16527optt
  Br  1.36894863446974     -0.46235820080712     -1.38690254816331
  C   2.80774830832165      0.06778232743928     -0.30149297556755
  C   3.16970231026884      1.34985306904156     -0.20644943485687
  O   2.62031251252208      2.41508365487800     -0.85988536958099
  C   3.35061197910039      3.57957850860879     -0.56777252981477
  C   2.96053869196733      4.42764092001357      0.63627863404770
  O   2.16110183923102      5.31340296660659      1.46083489486418
  C   3.02046163203893      5.38453695406422      2.54974074392159
  N   2.70419254012366      6.19574736156211      3.46995728164560
  N   4.15262153916989      4.50006014546057      2.59752686679735
  C   5.10761235955153      3.89487274948813      1.57064724169134
  C   4.64483837067995      3.07071140380650      0.27250282124756
  N   4.18674490927178      1.76596482976791      0.61835533538432
  N   5.13493274090857      0.88519662683391      1.15817206793568
  C   4.71961923451162     -0.40265148455687      1.12052893707149
  C   3.58744686235433     -0.94542165358336      0.47349749496442
  O   3.25233922783698     -2.14991724552971      0.48068427878143
  H   3.58063908706186      4.10011705031795     -1.49538497658455
  H   3.83488554027153      5.06268915107934      0.55282209675628
  H   2.99761263199919      3.60340094795843      1.33101459208434
  H   3.39631085580595      6.20067415503437      4.21158323485067
  H   4.61969603994475      4.60597759843383      3.48507338264580
  H   5.70704407559118      3.17406020158960      2.13049668157230
  H   5.76853750645060      4.68655312979635      1.20441965432831
  H   5.54796560946266      3.02704792825926     -0.35606074035782
  H   5.38453496108389     -1.10360309556328      1.61081233433548
