20
Coordinates from ORCA-job 16525optt
  Br  2.42038881910836     -0.08802738294075     -3.77124765300038
  C   3.35380706013744     -0.26184212273045     -2.12967395939468
  C   2.62636451228041     -0.20676588224326     -0.92285264170547
  O   1.24085584202261      0.03160004154307     -0.98211660952841
  C   0.87419461114462      1.19537498273740     -0.44264286600984
  C   0.58960069921667      1.52828472520024      0.83908794427094
  O   0.56399245706553      0.74086560383394      1.93306206410092
  C   1.37661325485108     -0.42816679158346      1.89373284830497
  N   0.87751267147499     -1.48913507855863      2.36927476213054
  N   2.66765452490847     -0.25517545899926      1.52968453091314
  C   3.20544760831709     -0.30183941402597      0.34233930867446
  S   4.97570006656904     -0.46838155754453      0.40247189069253
  N   5.54851146512324     -0.54072261560140     -1.15797225642539
  C   4.73174277243182     -0.44258301651429     -2.18496245995981
  C   0.24966402255605      2.89707595554049      0.75008485290144
  N   0.32749386365017      3.33355847613642     -0.47770898603738
  O   0.73623648632121      2.26511963102601     -1.23678506161615
  H   -0.09169586966191     -1.31514371101094      2.62347103566923
  H   5.19697142087078     -0.50895958105575     -3.16421266649962
  H   -0.05505628838770      3.56786319679109      1.53796592251897
