21
Coordinates from ORCA-job 16523optt
  Br  1.36340364212842      0.89863152601244      0.05529851854858
  C   3.17924352227589      0.43548981050184      0.00166981483944
  C   4.12651389858447      1.38016671687960     -0.05421774041303
  O   3.96477780128521      2.74743613711421     -0.13555990494142
  C   5.23450556842748      3.22844851334542     -0.34442017342272
  C   6.11780129699848      2.21640615553969     -0.34406048310985
  O   7.36017406511844      2.72687926633655     -0.13913691875504
  C   7.09812613720034      4.07327043073636     -0.01162656763371
  N   8.22195508909531      4.85991723477557      0.01194324257755
  C   8.24998182505508      6.24426119379555      0.02944659938786
  N   7.28414720655599      7.05672831326170      0.00260777058245
  N   5.84950749926097      4.42224316871383     -0.07484440959326
  N   5.48514489780629      1.04781150396980     -0.07850117713632
  N   5.98595226968092     -0.23463860699774     -0.15777739260625
  C   5.00839223765163     -1.17109455242182     -0.03913706308901
  C   3.60889889129979     -0.99321647885489      0.05583113549919
  O   2.76933694053410     -1.91136063871068      0.16068778487893
  H   9.09194586319124      4.36196350542878      0.09964565856599
  H   9.27289220744317      6.61618621729979      0.07195821981957
  H   6.38782873357246      6.56997877999076     -0.02951386222218
  H   5.37147040683428     -2.19050819671679     -0.04929305177677
