25
Coordinates from ORCA-job 16531optt
  Br  1.28654857361420     -0.39728698054786     -0.23385171636777
  C   3.09334106563837     -0.11363219722288      0.23676653037725
  C   3.79122613209421      0.88630364692326     -0.33134302763430
  O   3.18974811362684      1.62795396363213     -1.33742366005011
  C   2.85010175835536      3.00390648695663     -1.07430543506030
  C   3.11955018274121      3.85731903078712     -2.34935819550258
  O   4.22695611895903      4.79328634226823     -2.27278060311268
  C   5.39515115587731      4.47940847539438     -1.60535179465676
  O   6.34638953581139      5.19050839609432     -1.70594357242910
  C   5.13907098370628      3.22285925688570     -0.85580576784421
  C   3.83592051192556      3.50561481922226     -0.06751106467841
  C   5.97986961312359      2.23544907037667     -0.09988204801223
  N   5.14025166637466      1.02158218802787     -0.01342992485259
  N   5.67200553246985      0.25402848555934      1.08726532634467
  N   5.03812615420377     -0.85307684312072      1.44227535232124
  C   3.76973155436521     -1.13342632138507      1.08742915364181
  O   3.17157967184426     -2.15916059006927      1.42031432925423
  H   1.79837581839352      3.04019223836195     -0.78695186154387
  H   2.26297805518816      4.49110031103222     -2.56797608938885
  H   3.28658877137914      3.18569233089954     -3.19329117467073
  H   4.87278108472294      2.60180849332789     -1.71241705686645
  H   3.70317999721687      4.56452290574793      0.15074274291992
  H   3.80027741668718      2.94614649836138      0.86542590955938
  H   6.21827572148504      2.54996595799901      0.91908771128388
  H   6.90997481019596      1.98193403448792     -0.60868406303142
