23
Coordinates from ORCA-job 16538optt
  Br  1.18490859808491      1.17308953075828      0.67281399502029
  C   2.90212996880695      0.48618191578725      0.33748066703874
  C   3.93778719698904      1.35886870528454      0.14678050650315
  O   3.89305767180141      2.68781144716107      0.15967575392600
  C   5.21374229488057      3.14633517291917     -0.07848514108017
  C   6.09791661405676      2.08016214051163     -0.24050422689752
  O   7.29663645723401      1.94343166904545     -0.45094454984621
  N   4.74917784043265      5.39878369009823      0.00467095281482
  N   5.47781398947833      4.46767839876374     -0.12550075466385
  N   5.21108177963514      0.94252258924785     -0.09079461984896
  C   5.48458132636426     -0.39246512981035     -0.11241533419986
  C   4.49526134893236     -1.29297513487000      0.03793524449148
  N   4.98217907383343     -2.61496817698313     -0.10987933448057
  C   6.44677401940209     -2.50368413766571      0.05708316708090
  C   6.79126175431947     -1.07135398801732     -0.39298595668660
  C   3.09662346328436     -0.94554434407715      0.25404700723399
  N   2.12741590326274     -1.79504866437213      0.37062068063242
  H   4.56209464189907     -3.25379213828208      0.55483649900776
  H   6.96301050033508     -3.26744541675240     -0.52276179061587
  H   6.71895505200842     -2.61887661280037      1.11252020944279
  H   7.01971419690595     -1.02143964687859     -1.46133842351841
  H   7.63186287905004     -0.63383188454246      0.13961094925187
  H   2.47601342900285     -2.74043998452553      0.23053449939381
