20
Coordinates from ORCA-job 16544optt
  Br  1.04609630576943     -0.56183902834677     -0.10407285670361
  C   2.89599210994940     -0.30141609209057      0.09255222522384
  C   3.74034817801177     -1.32547291279997     -0.00974516458661
  O   3.40732710913335     -2.62637987113421     -0.18765575805658
  C   4.57091746466859     -3.36999934087316     -0.07736354318529
  C   5.62204896581859     -2.50034671116241      0.09703639793589
  S   7.21999637289062     -3.03053738666287      0.50937525607957
  C   6.93511955641741     -4.75507649853507      0.23151864373910
  N   5.87159198242680     -5.37920905090800     -0.03204732243542
  C   4.57334337115479     -4.78159764064332     -0.13993048125450
  O   3.58709490370107     -5.49243723984012     -0.28665138206486
  N   5.13694335754609     -1.21545881786171      0.08686610907651
  C   5.86372834428905     -0.02456202057525     -0.08730499899631
  N   7.12689512993083      0.00726543672962     -0.40596366402406
  C   5.17127339719155      1.24186951059543      0.13463600686805
  N   5.74739707793923      2.38481276924814      0.11495924171180
  S   3.42220729857003      1.32613852386653      0.45486743335905
  H   7.87294018413364     -5.30286397477270      0.31431521196639
  H   7.49080670281935     -0.89910520736634     -0.67141330746200
  H   6.74393218763831      2.22021555313277     -0.03997804719097
