18
Coordinates from ORCA-job 16548optt
  Br  1.07243319746988      0.40002306262395     -0.25192235321223
  C   2.95908020066061      0.27687625026672     -0.40371185784329
  C   3.72581998407883      1.28520876088106      0.00501747280599
  O   3.16357684276628      2.43052705850472      0.53303882561660
  C   3.80278561531460      3.56603391239995      0.17292801928886
  C   3.30246493230226      4.82932181233550      0.25411439801493
  S   4.50232791198681      5.88776939160687     -0.33016213259134
  N   5.61070546556804      4.73546609928220     -0.66354713493718
  C   5.12324375940138      3.56049077790196     -0.35095291912682
  C   5.89556369997707      2.28210564343940     -0.43697296306694
  O   7.05197225774465      2.22553205430911     -0.75575154946711
  N   5.12211536453122      1.19890621457362     -0.04043732936683
  C   5.79717697732501     -0.04681822261225      0.39626989110070
  O   6.78163759747047      0.05993313844618      1.11758513236438
  C   5.22464654294918     -1.28509457057888     -0.04663221948796
  O   5.67319442167787     -2.40819450867875      0.14144498027084
  S   3.63887597555039     -1.20760640172643     -1.00113970834762
  H   2.33237925322538      5.14651952702504      0.59783144798501
