22
Coordinates from ORCA-job 16546optt
  Br  1.17273618056150      0.02889657931781     -0.02020132457677
  C   3.03000175092057     -0.26684721504507      0.04496868217541
  C   3.54196538424336     -1.52050672528681      0.05538082946705
  O   2.85602914274305     -2.68988240224011      0.02704372592165
  C   3.78710812637016     -3.72902478520640      0.05191325330607
  C   3.31689782546617     -4.97677100087808      0.04137661073984
  S   4.13370878287581     -6.52113978136440      0.08515305088676
  C   5.94243160903078     -6.37027740383918      0.04415555402609
  O   6.46260892469517     -7.46745733557046      0.02667892309920
  C   6.70654701167115     -5.14859166681065      0.04813845445340
  C   6.35114091350608     -3.82473329664941      0.07809692740383
  C   5.11885301820741     -3.16541574666185      0.08609610912235
  C   4.93873485624130     -1.76484832742669      0.09590257801122
  N   5.84046044061166     -0.76708727339545      0.12928348171826
  C   5.36061739796701      0.44913603275545      0.12627271000007
  C   3.95562060866437      0.84239827560206      0.08808694134723
  N   3.54750876990033      2.08101773535493      0.09073413913164
  H   2.24185833224495     -5.10274935315447      0.00690901222679
  H   7.76631142336523     -5.37478509799944      0.03410406787380
  H   7.18724620221752     -3.13021709432523      0.08994724352888
  H   6.07980428621894      1.26536866283065      0.15556380268734
  H   4.35780901227743      2.69851721999285      0.12539522744990
