25
Coordinates from ORCA-job 16547optt
  Br  1.07327558841101      0.27472110127623     -0.39972817768654
  C   2.95355669727881      0.19554392731872     -0.18455170471502
  C   3.74011798258256      1.25400018029556     -0.62145266830903
  O   3.16838416811507      2.33805673256215     -1.21491528723835
  C   3.24217009740911      3.49921936290355     -0.43440169275672
  C   2.10217569719712      4.14631405383609     -0.02022714691328
  S   2.61037921738776      5.50491998375802      0.93234333943694
  N   4.24702177528984      5.11803559666568      0.89830966843093
  C   4.42397738849840      4.06887847292568      0.05569998092292
  C   5.82827611584604      3.60503232500272     -0.16461227930494
  C   5.95231177357754      2.33016629809664     -1.00990896429791
  C   5.13101379217391      1.19100176879118     -0.48572644968300
  C   5.69534429797040      0.07398577703908      0.11679870633483
  C   4.90062271327989     -0.97467615165730      0.56867239420727
  C   3.52638039139239     -0.92143477575550      0.41231574594126
  C   6.58602371317226      4.72761304494826     -0.84577139684502
  O   7.57640179440568      4.55232713364545     -1.52589101969008
  H   1.08286161840811      3.91049854502578     -0.27174352084604
  H   6.30704186991909      3.41729176410164      0.81585231324169
  H   7.00219832885374      2.04542735083421     -1.06452479062041
  H   5.62525286908852      2.56667991466275     -2.02574633660022
  H   6.77280202744920      0.02596019116067      0.22155131457291
  H   5.35317043428769     -1.83961152825534      1.03649842073237
  H   2.89285439852059     -1.72984995389955      0.75074724205277
  H   6.15238524948519      5.72989888471758     -0.69858769036733
