22
Coordinates from ORCA-job 16545opt
  Br  1.44569689114281      1.34305057347582      0.83135450994240
  C   3.15895426894891      0.74280429927180      0.35734462178683
  C   4.23896435867318      1.55599083893395      0.53709540746778
  O   4.25230544276191      2.80201880193326      1.04342550906413
  C   5.57989953057848      3.21511482489119      1.02440510844933
  C   6.38298174563825      2.17834239703703      0.62580019018435
  S   7.94023878684080      2.77876264834727      0.18531483763976
  C   7.38983871468150      4.39194980534126      0.99002248044345
  N   8.09292181374219      5.54142760380979      0.60676515994857
  C   7.89286977826363      6.25541579994572     -0.55382681701209
  N   7.03498351727659      6.06680125031643     -1.46596386477630
  N   6.03406469165868      4.43502208447234      1.15223504342775
  N   5.51115712233052      1.15602899857078      0.21809039722381
  C   5.72949049212116     -0.07691008414755     -0.30527447180274
  C   4.69202005013344     -0.91998652130740     -0.53253465930659
  C   3.31143501402146     -0.58071512914041     -0.21960587422187
  O   2.36838577203864     -1.34743225735449     -0.42504590435998
  H   8.85849509754642      5.83731855697048      1.18836174476683
  H   8.59708759422673      7.08520975459876     -0.65505204349017
  H   6.43376109693985      5.27607881364578     -1.22939671759266
  H   6.76346223556101     -0.31101558423526     -0.51652682608770
  H   4.87298598487329     -1.89627747537683     -0.95898783169488
