26
Coordinates from ORCA-job 16550optt
  Br  2.58572725672301     -0.93061466249066      2.33383702222217
  C   3.53413090836629     -0.64931243867127      0.72623776942847
  C   4.12822538716995     -1.60890080302965     -0.00852712775461
  O   4.27943000523495     -2.98689962373567      0.33528318663492
  C   5.60768321146437     -3.21098223124985     -0.05077745051829
  N   6.56772989679680     -3.64684738091987      0.67747504938984
  C   7.63860730940689     -2.53681932584336      0.40704110520984
  C   9.05873143040892     -1.85331651103527      0.42823278744057
  N   8.64762425524057     -0.37130024323836     -0.00164379800418
  C   7.12689057491835     -0.48566277279924     -0.30949149964850
  C   7.20806640929433     -1.87335799331140     -0.87477497782751
  C   5.87878371931403     -2.37154765133407     -1.26048636962063
  C   5.01352644117438     -1.17684324278002     -1.04640405562148
  C   5.76909681976500      0.07305649003646     -0.93117386308546
  C   5.07211618971524      1.07468080288439     -0.14657918977625
  N   5.45488456399950      2.25445639893978      0.20256932721732
  N   3.79077226809273      0.67510106507925      0.33374462784588
  H   7.25338069844524     -1.97536523460468      1.24996072091778
  H   9.78414644870132     -2.24329568549433     -0.28639450474349
  H   9.50396794424727     -1.79814437660924      1.41854140731051
  H   9.13625379563088     -0.20530298269960     -0.87711898630337
  H   6.75594816011273     -0.51151979418930      0.71293280597544
  H   7.96527678179776     -1.93962261788882     -1.65771377317429
  H   5.81235001868680     -2.91874638749803     -2.20446491845964
  H   6.32544806388529      2.46343080954586     -0.27947007918050
  H   3.34720144140729      1.39867639293698      0.87916478412547
