23
Coordinates from ORCA-job 16559optt
  Br  2.64738882768200      2.57302173067079      0.75379241019346
  C   1.47072171368443      1.12078840046404      0.38152690658209
  C   1.81384428596148     -0.21919257787058      0.80777168131800
  O   0.66303693159932     -0.85993874910952      1.59727073706226
  C   -0.14159921692754     -0.09499811006071      2.24291560783037
  N   0.00158023640683      1.18740336887618      2.36202674511736
  C   -1.28296813198308      1.68801786097570      2.51221494908374
  C   -2.14377648137939      0.67325809262802      3.24364470337984
  C   -1.46053631396101     -0.63073677194804      2.78365199192072
  N   -1.68471185408698      2.71606107372704      1.88738433421978
  C   -0.75868170154840      3.24902782499792      0.92852641109041
  O   -0.38885465332408      4.39270457544173      0.96029862402356
  N   -0.60250994398327      2.38408710801822     -0.15160886518126
  C   0.24700576860913      1.43558657085262     -0.34597357515942
  C   -0.01851621994174      0.49101470403775     -1.44855246340664
  C   0.70569520660795     -0.61598941346028     -1.67577655744334
  S   1.98833150635650     -1.19772890703321     -0.62666017993077
  H   -3.18979905414218      0.75208742065113      2.95925183719368
  H   -2.05388917703160      0.81031122985084      4.32183461346264
  H   -2.00813606153190     -1.12149610795063      1.97794295742827
  H   -1.29092263031700     -1.36185799284918      3.57308329898289
  H   -0.83956027142362      0.76012158635007     -2.10301065629860
  H   0.51585723467416     -1.21955291725996     -2.55855551146909
