24
Coordinates from ORCA-job 16553optt
  Br  1.22478581852798     -0.26689995640474     -0.51379364799548
  C   3.00137304890080     -0.26872354805379      0.11154202273967
  C   3.77410489970843     -1.36943906717932      0.22056252491624
  O   3.46314534678604     -2.66609599879137     -0.18101254692638
  C   4.64075919740561     -3.34921441096390     -0.13688196586935
  N   4.77184232693006     -4.59520142746933      0.00015752550624
  C   6.20473356623559     -4.77436420012491      0.32992107506625
  C   6.64400896575055     -3.42356242842768      0.94673024273003
  C   5.84690556203781     -2.44878077020787      0.06201068218863
  C   6.69385384882683     -1.90583149563212     -1.11551653597974
  C   6.85444313651298     -0.37342985792314     -0.83660385438242
  O   7.66981740570805      0.30047599367468     -1.44310035181654
  C   5.79838128455282     -0.01090609572986      0.07801362533759
  C   5.14506101068013     -1.20541766787470      0.50397240075040
  C   5.02241353499999      1.20542711467703      0.07706394824829
  O   5.36906252599658      2.36012873826940     -0.10185305167177
  N   3.63131823166083      0.95984801028305      0.32059526536345
  H   6.78022704806008     -5.00833219627529     -0.57241231919397
  H   6.31120966166146     -5.61330661005885      1.01767175886954
  H   7.72001513019818     -3.25198369456315      0.92435518000762
  H   6.29155278588535     -3.36899587211597      1.97893214996106
  H   6.16032666001323     -1.97213790961717     -2.06809476345754
  H   7.65873946838919     -2.40059637711551     -1.23251877253976
  H   3.06991953457133      1.79533972762454      0.26625940814794
