25
Coordinates from ORCA-job 16557optt
  Br  2.92679535155056     -2.24953580192500     -2.45998079144088
  C   3.52808059077663     -0.75788955407057     -1.40570602674397
  C   2.61181393560170     -0.04423261472151     -0.67437027354373
  O   1.25049122458251     -0.18302368432691     -1.02265813074241
  C   0.62792700107216      0.99184339239067     -0.97315025604337
  N   1.19074506660769      2.07644030727268     -1.31666634602468
  C   0.66301903809966      3.05406686811423     -0.39595370203678
  C   -0.79331828030956      2.61278148592890     -0.09529732077015
  C   -0.68071511047893      1.08992857083818     -0.22214163695636
  C   1.51922877757285      2.90661845759734      0.86712917373840
  N   1.58458577871408      3.80979327305671      1.76848205582203
  N   2.11038333450940      1.67048784311070      1.13663478089272
  C   2.98855869046956      0.76062906236971      0.42020139836540
  N   4.16180884504472      0.66288549826209      1.05505101761648
  C   5.19420449732488     -0.08497232185692      0.63557800949277
  N   6.25744251701962     -0.38372086089049      1.29243015391217
  S   5.22702166668642     -0.66172906287179     -1.08681376447917
  H   0.74045488348248      4.07777729794423     -0.75989425280372
  H   -1.44850784514485      3.02133242214651     -0.86545575490802
  H   -1.14404033700940      2.94657058265010      0.87983905765200
  H   -1.49678456859421      0.61891985465922     -0.77000809556712
  H   -0.57701366914673      0.58605028133030      0.73910826557369
  H   1.00872144272581      4.60538893834831      1.50080122932481
  H   2.52283957522555      1.74388858773270      2.06125948192428
  H   6.18225759361739      0.05570117691061      2.21058172774557
