22
Coordinates from ORCA-job 16561optt
  Br  7.56826085126969      0.16800511750192      1.95699443706353
  C   5.80200385638084     -0.47703406696955      2.03125097741350
  C   5.29515637932524     -1.43161341690653      1.23616856910223
  O   5.94531709914230     -2.10997443475463      0.20857212761324
  C   5.06756262258201     -3.07947642175358     -0.14067949118369
  N   5.31139272556298     -4.17643466545586     -0.70515869659481
  C   4.04148240119110     -4.92986283259079     -0.64919392577800
  C   3.19110543762126     -4.27037577228509      0.46596071862019
  C   3.66368468669668     -2.82309968293128      0.36997769896543
  O   2.96129699146905     -2.15309836458339     -0.77632012265150
  C   1.64782253642726     -1.98342233196367     -0.73276454085006
  O   0.87366198111900     -2.41691955984606      0.07017671179916
  C   3.96800445647734     -1.86759068699375      1.45317974085480
  N   3.16202190481525     -1.34914763387982      2.40136462356555
  C   3.64748925011025     -0.40333182410366      3.20167792679949
  O   3.11086445388011      0.17482594012964      4.11201304902949
  O   5.03884838043635      0.05476595366289      3.00266936484490
  H   4.25965157208997     -5.97786329728735     -0.44408481841749
  H   3.54003128651403     -4.87848410003267     -1.62007702324027
  H   3.49173669145294     -4.66120692854794      1.43843831457673
  H   2.11896867370690     -4.39013412995770      0.35053843143358
  H   1.34363576172937     -1.36952686045108     -1.59470407296600
