23
Coordinates from ORCA-job 16565optt
  Br  1.05639461560155     -0.57062868384044      0.25535474070288
  C   2.91338519787522     -0.35622300459513      0.13208980891064
  C   3.80259829679750     -1.42612994317127      0.08464069956629
  O   3.56973015262520     -2.79124261569359      0.13979105423303
  C   4.77675687543872     -3.40869171723151      0.09565698318362
  N   4.90400570832776     -4.67465477294580      0.18104892965854
  C   6.28934067489021     -5.11030535218360      0.07203137176530
  C   7.27595642285924     -4.14131510518950      0.75409117784129
  C   7.15824922558016     -2.75932222486698      0.12544659066437
  N   5.75405944618106     -2.45805229211376     -0.04072031425438
  C   5.15570628307557     -1.19371497006123     -0.01307657870529
  N   5.79258272497794     -0.05074121009157     -0.06518021873487
  O   4.88235057600262      1.03920374303933     -0.00023328958329
  C   3.48548005008783      0.94574495716967      0.07834474491294
  O   2.90394653455087      2.01094986583692      0.09729309309182
  C   6.44811001492180     -6.45660894495304      0.63629949664611
  C   6.62290086298480     -7.54531750509815      1.10588919743656
  H   6.56996704535190     -5.17519912288898     -0.99007967064138
  H   8.29628519551485     -4.51320219766004      0.66387310378557
  H   7.01982604688346     -4.09617521672828      1.81427209076204
  H   7.66597073322523     -2.72217222983635     -0.84222187885545
  H   7.59859913222169     -1.98694034169204      0.75814390463567
  H   6.75479818402474     -8.51326111520458      1.52424496297798
