26
Coordinates from ORCA-job 16563optt
  Br  1.83069221106507      0.91419823802602      2.66426596846550
  C   2.80256906453374      0.56776499097952      1.03824758330601
  C   3.68276727599556      1.56398523636815      0.55251530481185
  O   3.16968117025078      2.92232021358583      0.46155110428738
  C   1.93562948847587      2.86158448485424     -0.06362083300555
  N   1.53567405073133      1.95242009118183     -0.90222056478519
  C   0.17508061625170      1.88349542004149     -0.76848779668944
  C   -0.46132270127525      0.56910828230694     -1.09910614543123
  C   -0.26423935524409     -0.41338273291314      0.09156619977861
  C   1.05740477279318     -1.20837203602880      0.26638790653436
  C   2.39083331553330     -0.49302703017612      0.19953080032561
  N   3.15167033640699     -0.85874462266399     -0.79674733505404
  N   4.33839137958954     -0.16964094390828     -0.90764507681856
  C   4.49614832419705      1.17928534508082     -0.56909149514417
  O   5.27059909693298      1.88155661185468     -1.21165234889490
  C   -0.26213754965024      2.88877765076006      0.04852568676591
  N   0.89035160949596      3.54394191507427      0.47595532321189
  H   -1.53549074035721      0.68461423238266     -1.26506896128931
  H   -0.01505198279316      0.16460088828529     -2.01016654934457
  H   -1.04601697131691     -1.17708084483481      0.02154542166411
  H   -0.46527031511606      0.14976341562628      1.00432085038320
  H   1.11193331265168     -1.97990005235729     -0.50352450913573
  H   0.97084164250915     -1.71895446270708      1.23146485783509
  H   4.83756168807307     -0.40845781982945     -1.75094956243821
  H   -1.23942693644446      3.16494512719245      0.40409261290584
  H   0.97112719671040      4.14819840181841      1.27431155775555
