27
Coordinates from ORCA-job 16562optt
  Br  3.15499235363164     -1.24725300183309      2.80806835773530
  C   3.97231948374319      0.07575387055213      1.15531541378658
  C   3.11330196447810      1.03640186032567      0.69068874405934
  O   2.39274095961345      1.85551332464692      1.55906268143119
  C   1.09634950801609      1.99161065504989      1.20209124157035
  N   0.44659069097708      1.04071240698047      0.68545490753660
  C   -0.71624414662242      1.47609718515124     -0.06225476626384
  C   -0.21731557995768      2.57403496459503     -1.01719449771941
  C   0.12487441810996      3.81007629340475     -0.17043050783823
  C   0.57231809520000      3.39644889868004      1.26155743135490
  C   1.01421780326139      2.09618402726760     -1.81913597730149
  O   2.23432847804711      2.31557541110862     -1.11151971943181
  C   2.97377317455174      1.23458337841286     -0.69034118005604
  C   3.60546292195665      0.41148482962230     -1.58689625696749
  C   4.50558779786456     -0.59097000138956     -1.11928881906244
  O   5.16954443408175     -1.35491274470150     -1.78373700148816
  O   4.67262805150649     -0.64345972213318      0.26931492401068
  H   -1.52479555837317      1.87111005653279      0.56983956574046
  H   -1.11789606085302      0.62378610818983     -0.61240254395395
  H   -0.99766282093064      2.82389633350677     -1.74156649923057
  H   -0.74986057044126      4.45802457852512     -0.09325250426946
  H   0.92305990876007      4.37879393670744     -0.64691479970271
  H   -0.29429998483391      3.41893121185051      1.92593874503855
  H   1.32781459628681      4.06968676065673      1.65820863166345
  H   1.08369474275798      2.67960550008329     -2.74083255488766
  H   0.92272687326061      1.03931925967407     -2.08080283308472
  H   3.51074846590737      0.54996461853322     -2.65297018266941
