24
Coordinates from ORCA-job 16566optt
  Br  2.48419027347303     -0.91319039320912     -3.75762001774965
  C   3.61574659689914     -0.07831743953526     -1.76477658004791
  C   3.35835034960119      1.17001985931809     -1.33712286641856
  O   2.75135714704568      2.16408770239603     -2.16542056951120
  C   1.51698967208622      2.35707173858402     -1.71778461983048
  N   0.93884385083504      1.53345793619761     -0.90537150034019
  C   -0.07157438206067      2.14260765041310     -0.25547288554457
  C   -0.43405110007874      1.47320607648191      1.03646213899301
  C   0.82899015212218      1.44793373512080      1.96324884604397
  N   1.83293009573646      0.38877631006303      1.83453584680793
  C   2.71614820823666      0.22741896399498      0.75111913147263
  N   2.96140402695486     -0.96460696396380      0.34215842365631
  N   3.71475249161242     -1.04388724902907     -0.81485443295312
  C   3.29568762913618      1.42234091610836      0.09220117572470
  N   3.55602784005477      2.54381792682258      0.66016628208121
  N   -0.45022970409848      3.33647647394132     -0.63352418769254
  S   0.60047806425157      3.82505556213507     -1.84049085516316
  H   -1.22361589256498      2.03001753214350      1.54202592905207
  H   -0.77653309626146      0.45318232755509      0.85112918637236
  H   0.46936290700215      1.37636138761209      2.99165345471516
  H   1.32270705004056      2.41513080315778      1.86650303792900
  H   1.46596950637242     -0.51982531307205      2.08568674449540
  H   3.78915571495050     -1.99292993016287     -1.13981186746051
  H   3.40191259865325      2.46279438692680      1.66436018536814
