22
Coordinates from ORCA-job 16568optt
  Br  2.04626528017685     -1.71238412193766     -1.92522958852165
  C   2.99000676547228     -0.63519084011588     -0.67047646241906
  C   2.75412982094460      0.75954296222747     -0.65771855605007
  O   2.07197726162897      1.25702478719490     -1.79609091043156
  C   1.02416288258116      1.94499348791944     -1.33300446013582
  N   0.90682372300021      3.20472632977310     -1.33720719444079
  C   0.20758710223769      3.43331847685659     -0.08226858294766
  C   1.37893714488080      3.46297661852263      1.00207092327894
  N   2.68170455595662      2.98074697296142      0.52112525575998
  C   3.05196328673629      1.59507925081556      0.44732194990808
  N   3.78853160950371      1.20292774561044      1.46723048623925
  S   4.56383515672092     -0.27047092946586      1.49312384587426
  C   3.81135048973333     -1.32952494192448      0.23861556756747
  O   4.07621124480561     -2.52271469651376      0.28750644482574
  C   -0.56823079613456      2.15857339036511      0.22103334756602
  O   -1.47369504398052      1.97236801392492      0.99613081983854
  N   0.10182254730199      1.23879543617737     -0.54056827593602
  H   -0.40252486508974      4.33082698255280     -0.03727670327960
  H   1.03430255191400      2.93113970745293      1.89697255445112
  H   1.53945345148534      4.50372971080863      1.27840084201500
  H   3.39151079350744      3.40196765081851      1.10523981640265
  H   0.08287503661698      0.23354800597578     -0.44493111956483
