26
Coordinates from ORCA-job 16571optt
  Br  0.66540150611143      0.25938949935955     -0.10347053551454
  C   3.12320085839982     -0.10206013667824     -0.50309916165329
  C   3.83988804852148     -1.23190333927047     -0.72182178071091
  O   3.25977216295977     -2.32388522799032     -1.37927062204258
  C   3.76835950292906     -3.54604745186402     -1.21711212189206
  N   3.15644696789711     -4.51562429286750     -1.74829742594168
  C   3.59902156178564     -5.87258112241569     -1.55132229146118
  C   4.93573145581026     -6.10113818966628     -0.87381154493813
  O   5.26451223650710     -7.18436798797287     -0.45882272163716
  C   5.82741525430314     -4.89263004041567     -0.80933341538905
  C   5.04681175157138     -3.65310595723943     -0.39766401420153
  N   5.86696723128944     -2.47171940328820     -0.61584618434550
  C   5.20603148925764     -1.26807204220296     -0.36492814249181
  C   5.82009846358716     -0.17220289046865      0.17845312832215
  C   5.09242817757180      1.04865795125710      0.39195938256248
  N   5.51148153909646      2.17463665622252      0.87286758794979
  N   3.74700636814364      0.95889745061454      0.03527415828921
  H   2.84582883321366     -6.42741823616385     -0.98424983705134
  H   3.65807656608981     -6.37550028734928     -2.52388452930891
  H   6.21079388991079     -4.71573366728941     -1.82039798358874
  H   6.66812196446643     -5.08918445402860     -0.14382419391986
  H   4.74219395617278     -3.73657493732342      0.65776646024890
  H   6.76830482833435     -2.53178108829484     -0.16033728451094
  H   6.86228413768382     -0.21210933337940      0.46929540431933
  H   6.49996753158118      2.10317925242717      1.09258813526167
  H   3.18785371680465      1.78087927628830      0.22828953364569
