20
Coordinates from ORCA-job 16576optt
  Br  1.07775702467527     -0.02283511541728      0.03077544404729
  C   2.96957865708644     -0.04334329274029      0.20396931109846
  C   3.67165709693118     -1.19587710452789      0.02582609369142
  O   3.17375283053510     -2.42808367594092     -0.28040469530108
  C   4.23619004501166     -3.28108470697087     -0.38102660345746
  N   4.01726444322585     -4.50902210140487     -0.73108709750635
  C   5.03846451462919     -5.40952686539050     -0.62135388347484
  N   5.03972140396381     -6.50109591514391     -1.29268705851512
  C   6.11818189120913     -5.19854458995926      0.40946066555243
  N   6.87004731294849     -4.20721438335211      0.63902555832029
  O   6.66572220930685     -3.09830007804063     -0.22163706539769
  C   5.42601588124183     -2.55372888467417     -0.10450305491298
  C   5.08113327237840     -1.23168677608192      0.14950990938422
  C   5.78862001469957     -0.00222531845704      0.46075443544301
  O   7.01650366916840      0.10360588397675      0.58014794857245
  C   4.88898882428953      1.13340371141285      0.62136937974106
  N   3.58618790545166      1.10922581396745      0.50203136451601
  H   5.83802060855773     -7.07404894592682     -1.02500414999979
  H   6.32393209747355     -6.04711606658764      1.05892460175867
  H   5.35526029721632      2.08549841125908      0.85590889644000
