24
Coordinates from ORCA-job 16572optt
  Br  1.69723332407987      0.10123464075769     -0.91537540352536
  C   3.49043955804457     -0.23921043736527     -0.44650588151739
  C   3.92571916588322     -1.52444197945750     -0.09782812022691
  O   3.31483241108582     -2.74191675395725     -0.35716839673018
  C   4.18027117769330     -3.72752136957908     -0.02239562495304
  N   3.83016250424424     -4.95027250630812     -0.09540121046567
  C   4.68635634873216     -5.94375600383783      0.50298290429383
  C   6.01003861106924     -6.17334453015770     -0.20469945804084
  O   6.48859020124139     -7.27208880353674     -0.34376040990796
  C   6.72051837670587     -4.92781298517424     -0.69226993122639
  C   6.66967502568524     -3.78239116886217      0.31654728050352
  N   5.36457606495799     -3.15075581342854      0.39981713809935
  C   5.21332111577679     -1.75018296462816      0.34044128296764
  C   6.10307893810507     -0.72219463043845      0.48747182502833
  O   5.65439225022140      0.56288305145433      0.23604011756436
  C   4.35970847144235      0.86029578522252     -0.23449861824573
  O   4.12875625533606      2.04136390666813     -0.39993160817615
  H   4.94701742931010     -5.67984734121471      1.54297576772947
  H   4.16830552957455     -6.90129119198849      0.53772563499058
  H   6.24750947594165     -4.60540887944130     -1.62462031200331
  H   7.75404348975148     -5.19645294736811     -0.90898868220517
  H   7.36347390761114     -3.00241557836395     -0.00429175133339
  H   7.00050998763603     -4.12894253030438      1.30038520495337
  H   7.09247037987036     -0.76152896869061      0.91134825242703
