20
Coordinates from ORCA-job 16577optt
  Br  1.87804115672127     -1.51473904005488     -1.21313090470391
  C   3.18961085191751     -0.47635184159609     -0.31987210311438
  C   3.06939003915107      0.93211086690408     -0.32624026313284
  O   1.99289517250696      1.48539610156274     -1.01864385983825
  C   0.99419646231898      1.99852627069687     -0.29567320090443
  N   -0.13223261593477      1.40533482293281      0.03277089763606
  C   -0.79412745686842      2.40057716594650      0.66842101514734
  N   -0.15154664504527      3.54544555290703      0.75184519816969
  N   1.01733060546330      3.27261394890273      0.12770814689676
  C   1.98952254826049      4.26508071501491     -0.09958952095116
  C   3.32975781355042      4.09321910819458     -0.09859847235447
  N   4.17939963833445      3.09182713313217      0.22104426881193
  C   4.01583314769204      1.78739335964108      0.22942668612892
  S   5.39659250000074      1.02044329891521      1.06100134226094
  N   5.24346326060600     -0.63121117570495      0.94549740914901
  C   4.23282748878280     -1.16342804729144      0.29738467875001
  H   -1.78156007411776      2.27928061449525      1.08506850930079
  H   1.56506483480299      5.24062796599394     -0.27754558482665
  H   3.85749726700743      5.01863675226987     -0.32504178963988
  H   4.22004400484976     -2.24878357286244      0.25216754721450
