20
Coordinates from ORCA-job 16579optt
  Br  1.20009544025395      0.16970197045730      0.03721878360026
  C   3.06838136578290      0.08982210279505      0.03853476061507
  C   3.80173832506763      1.22526831731420      0.03827931856419
  O   3.22266336178378      2.43365733638318      0.03730551837380
  C   3.97069814321240      3.60987014186600      0.03681108525173
  N   3.29786911105754      4.68891570652179      0.03589205456286
  C   4.01726593691978      5.90242517076992      0.03530466842410
  N   3.40127524211853      7.03111296911711      0.03440836511140
  N   5.41216246740020      5.89800684189171      0.03564048893662
  C   6.02652671860770      4.75692888848130      0.03662256932120
  C   5.37999324561644      3.49420130523911      0.03735363624198
  C   5.97559173336240      2.23872905412477      0.03846122191607
  N   5.17806975173401      1.11771718885382      0.03901045461813
  N   5.79351079345205     -0.08311301811392      0.04016130670643
  N   5.12258081942083     -1.16625149156889      0.04060008577483
  C   3.72773101481897     -1.20671189221529      0.03986304376170
  O   3.13585898067380     -2.27250838774540      0.04039293437516
  H   2.40291059973844      6.83251173484350      0.03428907293647
  H   7.11586461214400      4.77907821821907      0.03685563521138
  H   7.03421233683460      2.03763784276567      0.03899499569663
