24
Coordinates from ORCA-job 16585optt
  Br  1.28790823878053     -1.65670050136894      0.63262376607488
  C   2.91230966088313     -0.64760958153192      0.86653885700441
  C   2.86508618703609      0.72754753488307      0.99252409254191
  O   1.72463454721345      1.34125390318826      1.53280742813769
  C   0.95588465441230      2.03047183244028      0.65706260754370
  N   -0.16850910572475      1.50050178213271      0.21765320697248
  N   -0.69739643100305      2.43767112259241     -0.57370194337427
  C   0.06443463298358      3.54915902808041     -0.65109553398737
  C   1.16415125848586      3.34514533019671      0.14590844850373
  C   2.24722204939777      4.34082900903505      0.42472669763685
  C   3.66068235043611      3.82168820351287      0.19644487418025
  O   3.94294298983903      2.81446315295527      1.14511735355613
  C   3.96058569173946      1.52407334268902      0.66016255750500
  N   5.02515408717582      1.19527514246132     -0.05989292611740
  C   5.26835926091110     -0.07238636850783     -0.44076571307397
  N   6.14642641433744     -0.48102847851769     -1.28390239036257
  S   4.38480719036651     -1.43081641719168      0.39036244216553
  H   -1.55999833511165      2.24236214300754     -1.04681867367460
  H   -0.22258977551192      4.39879273596168     -1.24959909658184
  H   2.18891622695759      4.66600830051545      1.46756118232161
  H   2.08127912655404      5.22380156391699     -0.19964980202675
  H   4.37968851759430      4.63195937682135      0.34456112589742
  H   3.78955614113497      3.42933608924885     -0.81551994116998
  H   6.64446442111227      0.34220175347880     -1.62510861967284
