22
Coordinates from ORCA-job 16581optt
  Br  2.94101558673590     -0.41347231518211     -3.65375189620169
  C   3.80043996215556      0.26328592612277     -2.08090283347294
  C   3.59092791819474      1.49584829595490     -1.59513548795163
  O   2.67678182967551      2.41403267624554     -2.16930074684781
  C   1.68646708374379      2.53345232280291     -1.26098801020031
  N   1.21309808727837      1.52211941907453     -0.58611304973944
  C   0.72165886007039      2.12786933053397      0.51513786239646
  O   0.44591441331621      1.40439991656064      1.60855430121355
  C   1.31909136059438      0.25677484112864      1.75266942934537
  C   2.83481516428859      0.56307213285384      1.84402019712185
  C   3.60647686573553      0.47312971035773      0.53860939071756
  N   3.78477805427959     -0.71575828797120      0.05376238645850
  O   4.41443258417469     -0.62283130084803     -1.29876157330306
  C   3.88697065999983      1.70888602040060     -0.17668439306661
  O   3.88933862471340      2.85187283861272      0.35547231818615
  N   0.69184910748178      3.43781062537156      0.48922343666882
  N   1.28839201854090      3.69519380433358     -0.72769693653559
  H   0.98422217738718     -0.17705952373720      2.69299205572864
  H   1.13268409159923     -0.44684962760816      0.94161734756251
  H   3.25263986238867     -0.15895371103382      2.54854583337326
  H   2.98086248913566      1.56392554573213      2.25526372849071
  H   1.78414319851007      4.56425136029443     -0.83453335994433
