20
Coordinates from ORCA-job 16599optt
  Br  1.19834254293802     -1.75271886780304      0.59997790613638
  C   2.73113311334281     -0.68501735269514      0.31207541910439
  C   2.65504508310089      0.66148178544252      0.46131763322388
  O   1.45810429454037      1.17451284507275      0.94533538164426
  C   0.85337434280794      2.17077836271087      0.28105092146833
  N   -0.41402809287173      2.11803818077183     -0.00455975511762
  S   -0.81622387267115      3.57143520247190     -0.62798950804119
  N   0.64401882840329      4.29185516510976     -0.54366984577654
  C   1.48798378182989      3.42100384622016     -0.03276902837449
  C   2.88832909789334      3.71790494906207      0.20891714560838
  N   3.85237596168306      2.88095016531515      0.33921037737224
  C   3.81730930620816      1.50754138704213      0.28120532908657
  C   5.03197689501997      0.89062256912190      0.00369858492515
  C   5.19369832554538     -0.50190057269153     -0.18893686947589
  O   6.27587249148447     -1.04750277304710     -0.47357946519059
  C   3.96659199537533     -1.36529017100222     -0.03970895862486
  N   4.02524092297126     -2.63664456799532     -0.19790776213374
  H   3.14087342012294      4.77549976891211      0.21411813870136
  H   5.90102940244049      1.52436909640757     -0.11105576542738
  H   5.00095215983524     -2.84791901842637     -0.42672987910864
