19
Coordinates from ORCA-job 16594optt
  Br  1.15096806754040     -0.48954604620579     -0.07556030872314
  C   3.00102275018778     -0.37370776067527     -0.07129808680786
  C   3.90720175267618     -1.36954228226456     -0.07008784274736
  O   3.69695141522545     -2.71606801020855     -0.07021360331336
  C   4.95490914243319     -3.28997707672824     -0.06974325690737
  N   5.03503072078274     -4.56688579398998     -0.06994315004697
  O   6.36693298939586     -5.01792563758075     -0.06974439605844
  C   7.46808326620940     -4.21043289232117     -0.07038728695573
  N   8.61932593357740     -4.74837105846350     -0.07104881075198
  C   7.32775933214009     -2.71861068824229     -0.06996811284126
  N   8.34976357290922     -1.93262081477455     -0.07053361981490
  C   5.97513729182728     -2.29492689604580     -0.06928171243874
  C   5.27384591262876     -1.08979192928194     -0.06917294616104
  O   5.71594828212344      0.21178728456528     -0.06908614657529
  C   4.82390119359594      1.21815803533901     -0.06985354215246
  O   5.18359682754811      2.35089353421475     -0.06942497272855
  O   3.50045264859464      0.93072770338999     -0.07116354680996
  H   8.52710464170343     -5.76235614065711     -0.07123661235162
  H   9.19006425890061     -2.51080353006952     -0.07125204581396
