19
Coordinates from ORCA-job 16595optt
  Br  1.07101189901201     -0.05071708596884      0.71695273406224
  C   2.83841568944211     -0.15234244765255     -0.34120603545712
  C   3.57279392129078     -1.34020942416812     -0.23061520060107
  O   2.82309567036485     -2.52701957589882     -0.28303263456032
  C   3.53381359777808     -3.63607766824978     -0.20016270973172
  N   3.03861114127537     -4.83286286619400     -0.18510727415048
  O   4.12360928900825     -5.65360175463307     -0.09002494173620
  N   5.28199008162954     -4.95955758638113     -0.04742873320442
  C   4.95231068052019     -3.71376313812808     -0.11535864496214
  C   5.82678506582402     -2.50475815054451     -0.09552973698522
  C   6.78268396335456     -2.50374591598333     -1.21240583787561
  N   7.53128508677454     -2.54187112429721     -2.07831398749768
  C   4.94331909598608     -1.25641663376077     -0.10257662171802
  N   5.63493449614938     -0.12286237140247      0.04040805129497
  C   4.97261672872286      1.05729970299606     -0.01781622263317
  O   5.46805990983578      2.16499062132409      0.11505706674402
  N   3.58457082241260      0.98166093903388     -0.29003983718793
  H   6.41959686390700     -2.47281583941570      0.82292256778959
  H   3.12949599671181      1.87667031932437     -0.39072200158971
