21
Coordinates from ORCA-job 16596optt
  Br  1.04497132243746      0.18464990383934      0.42337334916837
  C   2.92063764274557      0.17063148903600      0.24632391683261
  C   3.66614775006915      1.29532257645898      0.47251491593841
  O   3.02363634415350      2.43647081076956      0.95425437820842
  C   3.17327659770372      3.57530361666714      0.26295368718963
  N   2.18127371524791      4.37729691019148      0.07536073401115
  O   2.68698439155600      5.46743963398063     -0.54266375500077
  N   4.03727719393699      5.34107552449771     -0.75608402546166
  C   4.36972590628645      4.18344079068296     -0.27457605241084
  N   5.62740971044984      3.65549094330899     -0.28961675738820
  C   5.87598376069790      2.50688596824891      0.60845443843237
  C   5.05050795340716      1.31660063768494      0.26351551009035
  N   5.69380340364510      0.21655158234881     -0.25894105303994
  C   4.99407105318878     -0.86100229751613     -0.47471588384915
  C   3.60448375315077     -1.01171692870291     -0.22208860106055
  C   2.97260009572949     -2.24102293022621     -0.45443626304442
  N   2.48007217897270     -3.27182670070548     -0.65839243263765
  H   6.35712973410919      4.35136913378717     -0.34138001079219
  H   5.71669896549919      2.81836878806150      1.65008490525933
  H   6.91901736789890      2.22396942640079      0.48637133273280
  H   5.52629115911417     -1.71829887881420     -0.87931233317806
