22
Coordinates from ORCA-job 16593optt
  Br  1.04321322053256      0.29356515997014     -0.26516023109159
  C   2.90980847216572      0.06709306186460     -0.00888121509645
  C   3.77605734819117      1.15704929336741     -0.25895678813249
  O   3.15805744976078      2.31178937661959     -0.76913529854385
  C   3.68700466225993      3.49105459118039     -0.40914577293344
  N   2.86318811409560      4.46125670672434     -0.30186934538344
  O   3.40091932916583      5.70141351478224      0.02222636488961
  C   4.71633712255906      5.90116073472921      0.33863119727744
  N   5.11538998950650      7.04283679396947      0.72515174069926
  C   5.60906286263222      4.77295602584634      0.17186485589976
  C   5.12859533820789      3.58945381857493     -0.21964636799364
  C   5.92505985819566      2.36409231899870     -0.52236776297469
  C   5.15699756926359      1.13112089300429     -0.12063126132153
  C   5.84314448534398      0.02200083583116      0.32485378399786
  S   5.07801551563987     -1.47361588022357      0.76784227839030
  C   3.29685862153738     -1.20497897066239      0.44957965763051
  O   2.59979033907978     -2.17968338475544      0.68903957660322
  H   4.33316158141014      7.69442978464950      0.76292822073498
  H   6.65964605833025      4.95226653869271      0.35531673319218
  H   6.88646281182949      2.40486048346309     -0.00784863511540
  H   6.13468952805204      2.34666613809782     -1.60042325216950
  H   6.91953972224051      0.03721216527545      0.42563152144090
