21
Coordinates from ORCA-job 16591optt
  Br  1.29741455271758     -0.00828911822119     -0.24730989570565
  C   3.17146547987370     -0.09522057066269     -0.14746129019622
  C   3.92176952597947      1.03150417061930     -0.14789564993938
  O   3.46054391625248      2.32770495674497     -0.20616894416630
  C   4.56144577355235      3.11401584795574     -0.17884535459938
  N   4.71166521000532      4.39651854579476     -0.20896197951787
  O   6.11190146375350      4.54274207190530     -0.15306868362213
  C   6.72847858413570      3.29313879508233     -0.09056869698304
  C   5.73635611336320      2.35017748634327     -0.10607541747035
  N   5.33050016652022      1.04395126402691     -0.08637375642176
  C   6.11422126377404     -0.14299868927195     -0.02816386875852
  N   7.42241431579499     -0.15933012860477      0.01595393145043
  C   5.28824054059902     -1.27419104775633     -0.02387639961680
  C   3.88267239545242     -1.31850519796284     -0.07856080428738
  N   3.44375189329926     -2.61776114549488     -0.05044156599478
  C   4.52646267078360     -3.34724380657419      0.01655879687594
  N   5.67432543492910     -2.60024020518643      0.03445377368558
  H   7.80016743771710      3.29297254096801     -0.04543797677727
  H   7.80104457940124      0.78235231356127      0.00205761108713
  H   4.54591360565110     -4.42507080923336      0.05497988064494
  H   6.62924507644458     -2.90822727403323      0.08320629031280
