22
Coordinates from ORCA-job 16601optt
  Br  1.62080709980371      0.48698400468558      1.40946640557308
  C   3.00398442342232      0.25748571614283      0.12506402867199
  C   3.92658889140475      1.21506994759499     -0.08458930613124
  O   3.98869014648966      2.42513960118157      0.59425568449325
  C   5.26843690724588      3.02251716197803      0.40804055855799
  O   6.07620664693228      3.13864244908078      1.56208784870831
  C   7.10737917924737      2.13041075877893      1.58418486243316
  C   7.18266670983115      1.52687294113896      0.20230174494825
  C   7.21962571758294      0.02720869269035     -0.11608203833050
  C   5.80785111682716     -0.26369268476293     -0.64298261151704
  C   5.11493346077387      0.96220420626931     -0.83800254856045
  C   5.99499303740627      2.08188702344064     -0.49593559253856
  N   7.32846218009144      2.38046660106729     -0.98496926383432
  C   5.15853980157810     -1.48740805041021     -0.46514733711417
  O   5.60844383981080     -2.60597418015065     -0.24043660030616
  S   3.27719401497744     -1.32834489688409     -0.55932863156463
  H   5.09042404696136      4.04001174060835      0.05558671402541
  H   6.84152432352284      1.34023166608800      2.29182937855596
  H   8.01558044691606      2.62809338250394      1.93433408495412
  H   7.41843723424135     -0.58258665258639      0.76834612061319
  H   8.01425946987698     -0.17547433331897     -0.83828833298296
  H   7.57297130505616      3.33225490486368     -0.71673516865470
