25
Coordinates from ORCA-job 16603optt
  Br  0.96358668458662     -0.34491520025401     -0.53110779766877
  C   2.83330596732347     -0.30165775333049     -0.33774175403269
  C   3.54975034122754     -1.43981307119046      0.04794275115203
  O   2.88401999617129     -2.63080814188799      0.23664050573886
  C   3.71135963526724     -3.74237800108462      0.44622118554094
  O   4.72140391906399     -3.46702964364148      1.38453969881164
  C   5.62056630836720     -2.62467979337018      0.64874308572399
  C   5.89526649314776     -3.47976784499700     -0.60967872318348
  N   6.04763058014605     -2.74185815539286     -1.86206714674616
  C   4.83979338651459     -2.88814876239537     -2.53245304863066
  N   3.99458268415703     -3.72398061050819     -2.08322271551821
  C   4.52325058422725     -4.18700138966741     -0.80778075724976
  C   4.91282687496415     -1.36328742132213      0.27216533923463
  N   5.66543746425376     -0.28037038649336      0.03632684750656
  N   4.94367174287951      0.76574793127626     -0.52858003018375
  C   3.54411904957043      0.90952149555779     -0.58184185112199
  N   2.98960257368008      2.04064421224272     -0.88672946059981
  H   3.06501369587069     -4.51993315784174      0.84549971253761
  H   6.49887440604012     -2.42757301461432      1.26114637003700
  H   6.72652696906476     -4.16788939738490     -0.45180775626019
  H   6.36144011338513     -1.78043849386117     -1.75081495719566
  H   4.67321886608522     -2.31046241016421     -3.43520241148048
  H   4.60030535775690     -5.27504923571223     -0.79432929510808
  H   5.44494719523244      1.63657919479470     -0.46826458079061
  H   3.70549911101675      2.74854905124271     -1.04060321051294
