23
Coordinates from ORCA-job 16619optt
  Br  0.99611156113565     -0.35492194750083     -0.52640981905877
  C   2.85385027359015     -0.17481834160813     -0.29330099323213
  C   3.47960486475088      1.09510350676468     -0.27015667089113
  O   2.62564489242320      2.17114840371735     -0.49285641147745
  C   3.00881491159964      3.37572420914805      0.05793633174751
  O   1.92835653903748      4.28086774192809     -0.07933080621337
  C   2.20905579424068      5.22358814950105     -1.01985598712731
  N   1.41903739221809      6.10504458674858     -1.44918112090178
  N   3.52083667094917      5.07114831880891     -1.39884824336591
  C   4.12168221833974      4.00141644220105     -0.76504486506922
  N   5.30256096484535      3.61004013832994     -0.90525368247211
  C   5.69959368365590      2.46597576851589     -0.08179629966686
  C   4.85571592938889      1.20038573229898     -0.11921074891321
  N   5.63422106730017      0.12127330831469      0.06569780211915
  N   4.96724098166533     -1.07099310824994      0.16061188371815
  C   3.62221119515893     -1.34379978400436     -0.07463524442338
  O   3.24254697052696     -2.51669639408004     -0.05041276787359
  H   3.25842799966135      3.26333133096447      1.11789404892716
  H   0.50679777658998      5.98870674279557     -1.01878505941044
  H   3.94181621141576      5.62646879680132     -2.12288868259871
  H   5.80578326753901      2.81176133491601      0.95550650328960
  H   6.69219978558166      2.15579553991605     -0.39889609446261
  H   5.55688904838596     -1.88355047622741      0.22721692735641
