26
Coordinates from ORCA-job 16614optt
  Br  1.04428326155718     -0.17554420786422     -0.38950868693743
  C   2.91012689935466     -0.01229985239036     -0.26410912337616
  C   3.60639505859253      0.91796780033653     -0.95783677212079
  O   2.90787976965838      1.83284261472848     -1.71858279988955
  C   3.41424083179480      3.12762607811821     -1.61976783117023
  O   2.60381169911890      3.95193380723092     -2.41059778112706
  C   3.10952379404832      5.27287689946782     -2.37977737311850
  C   4.55184158879753      5.31393408957631     -2.85715450272982
  O   5.36162335407013      4.45590357010789     -2.08002939673977
  C   4.84454385990150      3.13824213239625     -2.11633044729616
  C   5.65668401830561      2.23552898704367     -1.22157822633005
  N   4.96790770533217      0.97394882872094     -1.03045673356438
  N   5.83522721021199      0.03032593140621     -0.48292271220059
  C   5.25640714303214     -1.15721409444132     -0.15998616104972
  S   3.78342573129308     -1.17073276788962      0.73490973551999
  O   3.86000920428750     -0.59294404274894      2.06959489333526
  O   3.14410685177264     -2.46939983422428      0.65778599374709
  H   3.37990168002725      3.47188061771487     -0.57134640600241
  H   3.05266508586762      5.66984281372740     -1.35774920026323
  H   2.47072499319815      5.87302372211826     -3.02760546810551
  H   4.96052514777677      6.32002822098108     -2.75674811132680
  H   4.59563831716528      5.01260270503358     -3.91189708073330
  H   4.83349824516610      2.76447800693966     -3.14857248585870
  H   5.82638889449820      2.73312831428796     -0.25820045465920
  H   6.62831327243215      2.00678438399884     -1.65534026318356
  H   5.93330638273929     -1.94276472437623      0.15480739518061
