22
Coordinates from ORCA-job 16615optt
  Br  1.23720024667768      0.11781195681400      0.22234730156789
  C   3.14682782345020     -0.05281829942619      0.11607048108066
  C   3.68289296534826     -1.31646253087811      0.10580047496306
  O   2.83601011007941     -2.41774861534132      0.13731733581384
  C   3.51860731895768     -3.51579054668170     -0.35433297854797
  O   2.77657957174838     -4.73613359772603     -0.25754026260155
  C   3.77467005439154     -5.64719643226735     -0.11087316838084
  C   3.46652613499602     -7.08859055354108     -0.29017767633635
  O   2.37492226144680     -7.53119335049452     -0.51650294174285
  N   4.94353650578975     -5.25376014051804      0.19778865049853
  C   4.76666010095880     -3.81839802780317      0.43976940958983
  C   5.78392045193897     -2.73152535274670      0.14152112244158
  O   7.00894377755935     -2.91679661439886      0.08030149399046
  C   5.11088445651244     -1.46787664858907      0.05190642964111
  C   5.83105326487044     -0.24271466960332     -0.04199680013626
  C   5.16674822694567      0.95374772828665     -0.02741211692571
  N   3.82653596354691      1.08662168465546      0.06870233007326
  H   3.75059083718034     -3.36325762051434     -1.41794662663816
  H   4.36236380428393     -7.72286433719759     -0.18341637814058
  H   4.51523304630404     -3.73204061439036      1.50833364064435
  H   6.90985330283492     -0.28916933750102     -0.10308874535703
  H   5.72043977417843      1.88515591986270     -0.08757097549729
