24
Coordinates from ORCA-job 16618optt
  Br  1.33613200625968      0.90723323237608      0.81280158289612
  C   3.12564222553105      0.42651936222096      0.40942838697666
  C   3.94727708167839      1.35046359548468     -0.23715459185050
  O   3.43655641369259      2.57201062917350     -0.67625562117469
  C   4.48788915637862      3.34583665818737     -1.14065631517636
  O   4.73135284213311      4.45701272728410     -0.26079382704287
  C   5.96406236399966      4.25147394672914      0.26448628443976
  N   6.30341920682522      5.20709735948534      1.18862143624403
  C   7.45032848233359      5.19925724209977      1.97619268182248
  N   8.40079653711126      4.37463560773267      1.97439383585652
  N   6.65889369702508      3.27026831624442     -0.12359808146313
  C   5.79834138506262      2.51812414689174     -1.05866316156219
  C   5.29734680224786      1.21731057639882     -0.50940886346830
  C   6.03966567553025      0.08603563083019     -0.22016010098056
  S   5.24551148860355     -1.35353777395418      0.36737424792909
  C   3.56944583892336     -0.84768471566252      0.84221894514021
  N   2.85900262197413     -1.70144041267972      1.49531034218078
  H   4.21898649950054      3.76572856886833     -2.10799699624489
  H   5.58769644418842      5.88479392034414      1.39054867125155
  H   7.46581469630259      6.05153143112374      2.65595929828744
  H   8.23674079334663      3.63096489284952      1.29269451564628
  H   6.31869066947001      2.42098387050210     -2.01396782591940
  H   7.11864499454734      0.06005839079492     -0.24454439532868
  H   3.39476207733435     -2.54367720332516      1.68816955154064
