22
Coordinates from ORCA-job 16616optt
  Br  1.27282437380343      0.14196632327125      0.17588766973959
  C   3.17161193163968      0.05735040383956      0.04763444822988
  C   3.90748380207834      1.18644757279060     -0.31046526812554
  O   3.36976624085491      2.41259410782441     -0.59885528911438
  C   4.43918695509550      3.28321924548868     -0.91160464677782
  O   4.47217699273659      4.35806320879153      0.01383853244202
  C   5.56881842979671      4.12990150585803      0.79593889370967
  N   6.34160550450614      3.18251004724324      0.52060178763359
  C   5.76831309044011      2.51498831772263     -0.67020554313147
  C   5.26902315515287      1.12913494031827     -0.39657793408169
  C   5.96204522473961     -0.09726591614254     -0.17287581285725
  C   7.35529049952156     -0.23651529641991     -0.39730561211113
  O   8.09029930626096      0.65933840928034     -0.86298860249352
  C   5.09650425827033     -1.17788169801711      0.23054367756782
  N   3.77853671505222     -1.08355760621101      0.32605710711793
  C   5.65326933304252     -2.46211941738369      0.54881617583562
  C   6.14112591282038     -3.52878760799008      0.81195966960228
  H   4.26860240311963      3.69757448980605     -1.90282192750614
  H   5.68309826455511      4.82983373254280      1.61401749640155
  H   6.49770325476044      2.56250941907775     -1.47570612792288
  H   7.78045377392080     -1.22134332423972     -0.14577933242468
  H   6.56626057783211     -4.47396085745111      1.04489063826656
