22
Coordinates from ORCA-job 16625optt
  Br  7.97081260034002      2.29097308113352      0.09703659804161
  C   6.60264080314235      1.62036230424102     -1.01246450267468
  C   5.94830762183153      2.35019361209524     -1.93804697454508
  O   4.87727311391594      1.58145998366644     -2.52819537858484
  C   5.46129566089653      0.51040618389603     -3.14230901030840
  Br  5.23413716842026      0.34552563461484     -5.01058608013962
  C   6.35417889916674     -0.19622885601067     -2.45097540942443
  N   6.52769202412982      0.22094639138453     -1.11861911702113
  N   7.21144933270761     -1.20374679637060     -2.92372484585180
  C   8.34327363127556     -0.88535033029344     -3.40097309125438
  C   9.02421655665798      0.44648946565856     -3.58330614538044
  N   10.18148007404076      0.39671159492189     -4.09786405638712
  O   8.30630960436331      1.49442263219137     -3.15820610535995
  C   8.71291683789784      2.85886221926752     -3.28074915427862
  O   9.86305319078235      3.11679539297503     -3.63602633245951
  C   7.66986700147823      3.77476233867191     -3.01395440296170
  C   6.35965426698112      3.55026478749443     -2.57953122307668
  H   7.19200483281321     -0.30902654506394     -0.57753996653716
  H   8.98849725401091     -1.69220306510341     -3.74256916024752
  H   10.55789456451413      1.34358984316501     -4.15961014791820
  H   7.95383579627069      4.78342239046108     -3.29118192862114
  H   5.61120916436277      4.30736773700359     -2.78860356500907
