25
Coordinates from ORCA-job 16638optt
  Br  0.85019647571673      0.26741686648730     -0.39914879453505
  C   2.70209368462287      0.07478049840490     -0.19900672218776
  C   3.54808264427860      1.12779157975450     -0.14637940099261
  O   3.14195850830806      2.42238071970177     -0.09819940094896
  C   4.30443796902448      3.25619468637028     -0.19073433558080
  C   5.44642278108077      2.34114977085713      0.17262347958262
  C   6.88162565819007      2.63065399915266     -0.04985096816998
  C   6.33934586680214      2.51385103651469      1.35823707017096
  N   4.89702802613753      1.05274301596871     -0.14166059327799
  N   5.66288945613631     -0.07208591744094      0.05279183115266
  C   4.94583712903694     -1.16252622060647      0.43988429486811
  C   5.75601410276193     -2.39412905099166      0.72998507999584
  C   6.61480352748673     -2.21615407102130      1.90594339347285
  N   7.29202463788341     -2.09949413695057      2.82485893023163
  S   3.40161044662290     -1.52394341875864     -0.27114251706869
  O   3.47767147891241     -1.92615165698689     -1.66712092056610
  O   2.66428143892976     -2.42822262044331      0.58975593828849
  H   4.18133487989224      4.09444138495743      0.49269032835828
  H   4.39055829557293      3.61882188935432     -1.21897353946137
  H   7.15106130573968      3.61030679618392     -0.42327756464315
  H   7.47436653686396      1.79900826926737     -0.40529541833336
  H   6.23354464557091      3.41655798021136      1.94535979784446
  H   6.58894944535349      1.60811323664450      1.89440882224891
  H   6.40574657846361     -2.67364455578873     -0.11128362770065
  H   5.08711448061139     -3.23386008084235      0.93053483725167
