27
Coordinates from ORCA-job 16636optt
  Br  1.62214659963713      0.42160672002638      1.99531909672360
  C   3.41774876202449      0.48071795803622      1.36009187250800
  C   3.81941005058810      1.40614621227478      0.42646620397228
  O   3.05331402739919      2.54341316215216      0.28570379677803
  C   3.42448524378493      3.39513169204261     -0.76984707238261
  C   4.93257764703010      3.61939249865842     -0.77324386884219
  C   5.58557497484591      2.27192392364108     -1.13660023647798
  C   5.01356816645278      1.19333591670076     -0.26321159851939
  C   5.70413280579338     -0.02583967748381     -0.06097271544801
  C   5.26354695849716     -1.00574346985020      0.84171450185435
  O   5.72691352833640     -2.10438776868960      1.09334806766138
  O   4.10636575911378     -0.66162935335514      1.60394748448743
  N   5.37534768805174      4.17727768538095      0.50550283635027
  C   6.62108118736188      4.89864895657328      0.25829595215655
  C   6.30647397061270      5.64106780537912     -1.03748140670649
  C   5.36590863357813      4.68599155703569     -1.75707796593518
  O   5.03244800442968      4.75574427688027     -2.91106618200019
  H   2.89967926663845      4.33433706428464     -0.59521071410100
  H   3.12145015926362      2.97937859755098     -1.73706328938791
  H   6.67370844311415      2.32668780047122     -1.00860362000034
  H   5.40329183182991      2.08342995649561     -2.20165550950659
  H   6.59900057466427     -0.25448476673489     -0.62249912384234
  H   5.45306759961653      3.45377267143163      1.21200129847863
  H   7.48588420054113      4.23783471331788      0.11023787845640
  H   6.84470819041144      5.56703907878396      1.08953966435128
  H   7.16274763577585      5.89467175191578     -1.65942414131882
  H   5.74141809060672      6.55353503707997     -0.82921120930918
