25
Coordinates from ORCA-job 16631optt
  Br  10.97402352891833     -4.06842474369631     -1.54528868764536
  C   9.52946599569762     -2.89986558165374     -1.80558111492761
  C   8.42835458800034     -2.85970414403415     -1.03229076328918
  O   8.17230428305157     -3.66252242113439      0.04538276381439
  C   6.75257154838467     -3.63943938277075      0.21987250585368
  C   6.23684028117256     -2.31247503823056     -0.36417820101485
  C   7.36155743727250     -1.99564673368659     -1.33549962727650
  C   7.48004628248926     -1.20557795612163     -2.49874107634836
  N   6.41403016914703     -0.36677749280436     -2.92078546542355
  C   5.57962190423019      0.10095848616179     -1.95482243351324
  N   6.05069145686448      0.45641829824949     -0.82158666694437
  C   5.31996448285739      0.05626880095017      0.33521335579988
  C   5.94489546868165     -1.28243018961861      0.75677169961862
  O   6.18782957292319     -1.51414425442891      1.91653722340136
  C   8.68214473358966     -1.18415418814889     -3.25860433324764
  N   8.97857594156135     -0.47750724314562     -4.29515021427858
  O   9.68979436156540     -2.06528827812941     -2.87878933096937
  H   6.54807615653668     -3.73829357728578      1.28278390274594
  H   6.32310987585713     -4.48060632056874     -0.33297496565616
  H   5.28266646832247     -2.47806665972159     -0.88557316023022
  H   6.02609234693582     -0.54052951354498     -3.83644742442081
  H   4.49848961989231      0.02166651685392     -2.16231446033866
  H   4.24019645503097     -0.11827363336143      0.15411674485881
  H   5.43594818346651      0.74850401831052      1.16910601771213
  H   8.22770885755087      0.18791123156058     -4.45315628828034
