27
Coordinates from ORCA-job 16646optt
  Br  1.03320138253990      0.23241557482796     -1.06230330574704
  C   2.84264145845352      0.06367351254222     -0.53025293065669
  C   3.52447146136492     -1.17142274956766     -0.66082594829963
  O   2.82088433759155     -2.35099690360264     -0.83818553624818
  C   2.06275804346615     -2.75522155809988      0.28848975526246
  C   2.86594731796911     -3.67170612742330      1.19371951899838
  C   4.22603013487691     -3.11746504909624      1.63580601660817
  C   5.17710947083159     -3.60075810232950      0.53328266645367
  C   5.61058993976326     -2.56285185337448     -0.54448261474718
  C   4.89557192364055     -1.24153599292408     -0.50695625973433
  N   5.66203067488187     -0.17736445585133     -0.25195561062225
  N   4.96528320279763      1.00463205013281     -0.17835500614030
  C   3.60168295663757      1.24834178834825     -0.32801636864839
  O   3.20093691720227      2.41311731575632     -0.27101769963023
  C   4.42352277176171     -4.78587682259407     -0.05365150718405
  N   4.80863657069278     -5.65145520679583     -0.88704788650555
  O   3.18784117762902     -4.87449251349836      0.48365894076741
  H   1.19420276719198     -3.29668670892959     -0.08980738986473
  H   1.71731316004075     -1.88407664136708      0.85313180586609
  H   2.24183920920676     -3.96277074841175      2.04114099935280
  H   4.50065293716361     -3.57448168677382      2.58717161375518
  H   4.21808164695298     -2.03581942355663      1.75611805197379
  H   6.08522113636317     -4.00892350994355      0.97910761640551
  H   5.48956417222085     -3.02799161789840     -1.52602856379717
  H   6.66788116284863     -2.33507152306578     -0.41541995061894
  H   5.52497760769482      1.82224989732165     -0.00523236749730
  H   5.76512645821607     -5.44546094382519     -1.16408803950147
