22
Coordinates from ORCA-job 16645optt
  Br  0.84851407832768     -0.17319189949675     -0.23837550284966
  C   2.78213061410295     -0.12457217723740     -0.13880403784372
  C   3.47163843109154     -1.22411071911507     -0.70321273524143
  O   3.13060779718628     -2.52969451887595     -0.26184650630262
  C   4.09021031691044     -3.01061061568054      0.67999719824029
  C   5.41280240150999     -3.35334313430273     -0.03260882613241
  C   5.70061222209880     -4.74985960218208     -0.19860497327743
  C   5.94378869243426     -5.91880599822184     -0.34240280989925
  C   6.71017898366363     -2.47613188938172     -0.25208951345407
  N   6.89073075990105     -1.14119377357748      0.23978311154973
  C   5.68243860400452     -0.47216119398290     -0.04699951482358
  S   5.18264006303899      0.91758578573548      0.83768895123596
  C   3.29946429599905      1.01576542086725      0.44616246643953
  O   2.82185697727468      2.05970368321887      0.85307892222553
  C   4.90173169915425     -1.17599346389948     -0.90100019955689
  C   5.60937767041946     -2.45478383970278     -1.23680641098564
  H   3.67111188194531     -3.91772592014781      1.11246342938078
  H   4.23174699215507     -2.26854107764546      1.47406862736871
  H   6.14510363874713     -6.95325588171073     -0.47677687111050
  H   7.60493727429320     -3.06281331931428     -0.40195592860280
  H   7.20130966054041     -1.03188620085224      1.19496259956016
  H   5.64406694520118     -2.86437966449432     -2.23772147592067
