32
Coordinates from ORCA-job 16652optt
  Br  1.09094445760973      1.23278630469518     -0.46552236100578
  C   2.88630032977322      0.65013259476588     -0.50792526164577
  C   3.18719177121607     -0.73378991686343     -0.51578422152447
  O   2.13563418088764     -1.62358738870739     -0.65244370666356
  C   1.54888010262467     -2.18089265017488      0.53058004612382
  C   2.57759584009692     -3.12924333231468      1.11252203123146
  C   2.29750195752984     -4.43006742301895      1.85081987942669
  C   3.69589867933312     -5.04308204644250      2.17767016328987
  C   4.85567558639702     -4.49572616533917      1.30569049098318
  C   4.94461473907010     -2.93492971118901      1.25909971014956
  C   3.67852972035621     -2.39848437607427      1.89437015999389
  N   4.95932827303067     -2.46609613940083     -0.15251478550055
  C   4.53652614969858     -1.11492600347591     -0.38373681350754
  N   5.52925136299757     -0.23510469634181     -0.38938667293491
  N   5.18152854466764      1.05285287180353     -0.77334417262442
  C   3.90804106519495      1.62866225412744     -0.59321029159268
  N   3.72892925270785      2.91516907881305     -0.58179313898411
  H   0.65295918381404     -2.69994472482189      0.18263148364725
  H   1.24990228491511     -1.37996255424493      1.21497039930640
  H   3.04220795103321     -3.47120007221605      0.18865809694840
  H   1.71621740788553     -5.10877608349949      1.22101670018014
  H   1.73538485995934     -4.28145488689054      2.77796044007877
  H   3.66357517227837     -6.13054902237697      2.07974479454192
  H   3.93467383616489     -4.84664985329666      3.22504509800724
  H   4.73981438930053     -4.84800519240002      0.27853683552063
  H   5.79134538444523     -4.91971250001306      1.67817073254484
  H   5.83703378576535     -2.58205865150337      1.78806165076731
  H   3.62019881900226     -1.31582016044035      1.81765926114957
  H   3.63857446961440     -2.64703261632354      2.95821307939162
  H   5.90411544100379     -2.53076038698241     -0.51230852630535
  H   5.93867009809618      1.69072607133895     -0.58690200637581
  H   4.62595490352989      3.38752737880815     -0.67954909461763
