28
Coordinates from ORCA-job 16658optt
  Br  0.91560007347456      0.83672004089939     -0.04788340356445
  C   2.77185111387094      0.59982261729773     -0.26472394703979
  C   3.30353983578824     -0.67363212052795     -0.54297236942607
  O   2.41509038455093     -1.68729006646102     -0.86201674401258
  C   2.34507957847566     -2.75890237007996      0.04216205018263
  C   3.56851027403033     -3.70168638617091     -0.03623073048639
  C   4.46552771017438     -3.34725241820439     -1.22455111239141
  C   5.34728460029278     -2.22834873359178     -0.65309133188850
  C   5.68621295819000     -2.77864880350464      0.74292316751228
  N   4.50025707008176     -3.56578938219591      1.08688488551868
  C   4.41351811860648     -4.26645989788994      2.22339291191194
  O   5.24630672208935     -4.27841593796267      3.11129230882016
  C   4.68029998207238     -0.87531703386286     -0.54526200675146
  N   5.55241152670635      0.11462455782815     -0.33037762765562
  N   4.98882886995696      1.36990533555400     -0.21824105286347
  C   3.64319374868458      1.69621575157118     -0.01557952120789
  N   3.26358848779705      2.88883009004304      0.32510033173526
  H   1.44572649709473     -3.31315283135520     -0.23640859564158
  H   2.22806301951774     -2.38792612017858      1.06616897271646
  H   3.21701149445434     -4.73514412291772     -0.07251916901567
  H   3.89553841390907     -3.04173286533863     -2.09765430270401
  H   5.08920066611117     -4.20785584168672     -1.47695035786353
  H   6.26175179547593     -2.09937202129851     -1.23293181853322
  H   5.85440220857779     -1.98384570610552      1.46721381885785
  H   6.56272852621281     -3.43424719672132      0.73517361710720
  H   3.48462236974562     -4.86216862223723      2.28547330572463
  H   5.65192406765248      2.05909188652332      0.09308265013666
  H   4.07692988640549      3.49097819857472      0.44052607082187
