25
Coordinates from ORCA-job 16655optt
  Br  1.03977880753765      0.02222994134642      0.22381317330572
  C   2.91206224711139     -0.02442857885450      0.04278977767716
  C   3.62759343027357      1.14397604334224      0.01075722809598
  O   2.95099024753374      2.29601766938935      0.13105996279040
  C   3.57498472797080      3.52319396309935     -0.23657497936778
  C   5.05261718890082      3.53306917310541     -0.08217039286863
  C   5.80663105278763      2.39172356654424     -0.07442851539157
  C   7.21055966400249      2.48968132625710     -0.04798808326024
  C   7.82395094051756      3.76605582233725     -0.01277697799486
  C   7.07508218045984      4.95787531183521     -0.02044843247360
  O   7.47742874214369      6.12970970155356      0.05046757291584
  N   5.66586656136499      4.77314552383828     -0.12833404382716
  C   5.06122187301295      1.13351906491295     -0.10198946804356
  C   5.64783240424704     -0.08073543858174     -0.19828223181232
  N   4.91729119386451     -1.24046962894145     -0.17708917875835
  C   3.53628883804186     -1.32355529638966     -0.04747846152691
  N   2.88317529586301     -2.43505789398000     -0.01850106360848
  H   3.11299706976843      4.28424042291968      0.40096386794992
  H   3.27986489101343      3.74535273860499     -1.27266318214035
  H   7.82275274509985      1.59921572942045      0.00334437924218
  H   8.89768032900247      3.87343815894608      0.04318992092269
  H   5.13416311368966      5.61212317294750      0.04717615387385
  H   6.71668907203519     -0.19733563806082     -0.29220708286596
  H   5.40826809327755     -2.11551538098062     -0.25078700298598
  H   3.51622929047980     -3.22746947461131     -0.10084293984798
