26
Coordinates from ORCA-job 16667optt
  Br  1.60229723557093      0.26916921765241     -1.30770008239926
  C   3.36019309132555     -0.21953342312749     -0.85392675786159
  C   3.70761876194863     -1.44307253954935     -0.38125889351072
  O   2.74527218120867     -2.41581479873579     -0.23155056102877
  C   3.26939530914942     -3.72213473962063     -0.15484391779942
  C   4.35734851048186     -3.81295232238144      0.90739888308504
  C   4.81850873945389     -5.23555812807953      1.18253848226910
  C   5.48227369855865     -5.82745172059033     -0.05086931894644
  C   6.45294501439661     -4.89739008561705     -0.75806986783180
  O   7.26704872889053     -5.33815280521183     -1.53067386177820
  O   6.34768940992650     -3.59003577706184     -0.56842288962048
  C   5.52542428467285     -2.93942352082278      0.48407222869311
  C   5.05706519487700     -1.62354293731614     -0.00806927974715
  N   5.95033538540181     -0.60694766388349     -0.04621207509999
  C   5.56534653643197      0.60614490656457     -0.47560829093348
  N   6.25723660902205      1.68389327608078     -0.52555906594791
  O   4.24867102727892      0.79595211337759     -0.96035621713952
  H   3.66559105845211     -4.01375215261095     -1.13575136052391
  H   2.42765293840902     -4.37240984225368      0.09228431696569
  H   3.95124076274931     -3.37636582058985      1.82421911813669
  H   5.53192754941559     -5.21557491120858      2.01069270509847
  H   3.97904555659742     -5.86065871165584      1.49801089096804
  H   4.73187242768465     -6.08431256978629     -0.80358254657269
  H   6.02837272501218     -6.74378896970131      0.16651341210509
  H   6.23033611866497     -2.79114870322002      1.30665053381783
  H   7.18329114441880      1.44486262934893     -0.18292558439774
