25
Coordinates from ORCA-job 16660optt
  Br  1.50435589654204     -0.46906118946767      0.34325794085667
  C   3.29172160691682      0.10409498031245      0.33119644893443
  C   3.69100527908889      1.39588572007549      0.21356371612743
  O   2.89702423517944      2.49783645402386      0.07193931662202
  C   3.74420278758789      3.52743664287422     -0.28288686904044
  C   5.03242543758159      3.13129162803655     -0.33532762276936
  C   6.31434667244480      3.70507066227711     -0.78171268400084
  C   7.23361845267053      4.14329804150260      0.09185232532918
  C   8.50645498049586      3.34231776067693      0.13660024847790
  N   9.59291008610964      3.55870938723215     -0.47732205331622
  C   7.95105902312083      2.15681840361412      0.85995425685170
  C   7.47383721354048      1.06006438773745      0.13592390657926
  C   6.08440921195804      0.73923765040486      0.12918240845427
  C   5.05580900277785      1.72313094477974      0.05963175185373
  C   5.64249443342719     -0.66089840961964      0.14692976616934
  N   6.37744106698942     -1.72075578316370      0.12727499050837
  N   4.26910042988655     -0.87524294344737      0.24361657597606
  H   3.26840789435673      4.47103611697547     -0.48459686254825
  H   6.71223204789083      3.17015043515827     -1.64332548664309
  H   6.89444691925674      4.52662202000404      1.05017724525850
  H   10.21915695070903      2.76866848376130     -0.30970456489113
  H   7.24916568807975      2.46618178413140      1.63164780739329
  H   8.13732507163686      0.50611159613637     -0.52821387378838
  H   7.35496805342885     -1.44791497704131      0.13950342677064
  H   4.01408155832326     -1.83608979697474      0.40883788483489
