26
Coordinates from ORCA-job 16679optt
  Br  1.26657305184179     -0.37243835441792      1.83429440664975
  C   2.92753617754981     -0.04962469414706      0.91179001537609
  C   3.61147032337164     -1.13873639204820      0.41509604868522
  O   3.07909639041858     -2.39211822631893      0.57480941287195
  C   3.05312114444265     -3.17108093323289     -0.61020788784819
  C   4.27453487020424     -4.06822578731332     -0.65179020323052
  C   5.60513725536801     -3.37984620663816     -0.31652102515953
  C   6.58215949067041     -4.28092319271893     -1.06173083858047
  O   5.86503398900473     -4.77040650292727     -2.21268787536028
  C   4.53499999177515     -4.66984291625129     -2.00826316792076
  N   3.65125639915612     -5.02986830499670     -2.83437743918351
  C   5.75480678981855     -1.90864677918160     -0.75870341557606
  O   6.77515931944888     -1.59823546685662     -1.41980792862287
  C   4.84500264207123     -0.91639620008888     -0.27449472990297
  C   5.18294164155858      0.46067517572963     -0.44212127873021
  C   4.41175551830650      1.44361785557754      0.11325115301930
  N   3.28432169786652      1.22169782031581      0.82231917433284
  H   3.02507231271749     -2.52610674970773     -1.49066858558110
  H   2.13984334085895     -3.76508599108569     -0.59133190027593
  H   4.12719543025692     -4.90002070164499      0.04687870636443
  H   5.78831648639343     -3.42685621591448      0.75990771612408
  H   6.88170472485948     -5.14417470404030     -0.46096506906566
  H   7.44638497999908     -3.72823229229637     -1.41672039282919
  H   4.09090837406198     -5.40179963246178     -3.67539290030707
  H   6.08523779093616      0.69665821989069     -0.98804625226352
  H   4.69442986704307      2.48601717277547      0.00548425701419
