25
Coordinates from ORCA-job 16677optt
  Br  0.81488531863299      0.44977827489275      0.11235621405162
  C   2.70049152263337      0.23517288921843     -0.14935701791101
  C   3.49685867684807      1.32375170166702     -0.31121012027663
  O   3.18549666086804      2.66112149814108     -0.24077333984387
  C   4.40470003252418      3.33180879421121      0.12381866999402
  C   5.58257909547683      2.44379555939055     -0.34259150872704
  C   6.72502716773195      2.24016673723551      0.66285568177092
  C   7.53532010922387      0.99874583772150      0.31804896837958
  N   8.81560834230871      0.95705619305823      0.23174853683850
  N   6.80945585490517     -0.14821658818721      0.13110132561554
  C   5.42633078870958     -0.10918892976289     -0.11934903750674
  C   4.87812527226060      1.14204386429462     -0.48398845770889
  C   4.52404276154878     -1.13096278475921      0.04511927742199
  O   4.91082727181441     -2.41530743356654      0.48133777373672
  C   5.87666682805057     -3.11076668119307     -0.08672268558001
  O   6.63365721886916     -2.76187857671415     -0.95390956850860
  N   3.19039668653594     -1.03251118868696     -0.10322569066343
  H   4.42556925553592      3.43723857799871      1.21557742140646
  H   4.38038337271111      4.32149297234123     -0.33190800269375
  H   6.00553311078809      2.83119259711524     -1.28094399988232
  H   6.28120867664331      2.08804119207927      1.65241145539255
  H   7.40548173314308      3.09245512434635      0.71545898431911
  H   9.20034464866766      1.87455016259923      0.43214612158428
  H   7.32998097889008     -0.95079341634336     -0.19921193175035
  H   5.90902861467833     -4.10778637709758      0.37221093054132
