30
Coordinates from ORCA-job 16671optt
  Br  1.16933995674409      0.66417315550833      1.44742667736390
  C   2.88604708780514      0.38927227604096      0.63373282254568
  C   3.30975930166002     -1.02709544716351      0.46562073909958
  O   2.37968906062286     -1.71501600588521     -0.44848844917738
  C   2.38081323552800     -3.10098290812284     -0.19662786420542
  C   3.07179515156313     -3.34739625541645      1.16894201661916
  C   3.18159569350737     -1.92543158562297      1.71925845165947
  C   5.49297040466058     -2.71472159273575     -1.68750940255476
  N   5.30447799506488     -2.25022782690511     -0.40960995543347
  C   5.58582706797390     -3.14341383257502      0.69231517614711
  C   4.42110524968499     -4.07012647541474      1.05281284002928
  C   4.67877632067225     -0.99664537597330     -0.14503715778227
  C   5.25525210633578      0.14748691791259     -0.60671117020678
  N   4.76222661129792      1.39415758628324     -0.51357461417078
  C   3.56777455179619      1.46371720482514      0.11283051700358
  C   3.02574331505242      2.79832607194006      0.22384964959364
  C   2.59291674404697      3.91581548344334      0.29359821555212
  H   2.91161615934262     -3.62980749211478     -0.99689796758776
  H   1.34176599947193     -3.44622857139530     -0.17928018724766
  H   2.41979261813714     -3.95753326864066      1.79693505557507
  H   4.01118677993799     -1.77527652544582      2.40862863125808
  H   2.26109049197650     -1.65533777455278      2.23420034552394
  H   5.21778714236087     -2.05314474670624     -2.49311000145615
  H   6.25721966548525     -3.46934697961821     -1.83343777982374
  H   5.85961416972442     -2.53160620367500      1.55354758975211
  H   6.46212721159767     -3.74688821567999      0.43243905982094
  H   4.66425082014711     -4.56033307869699      2.00140748468311
  H   4.34041291166374     -4.85738445211228      0.29685914678189
  H   6.21981384631505      0.05045720597448     -1.10183855747477
  H   2.20021232982280      4.90053871252495      0.35571868811227
