24
Coordinates from ORCA-job 16684optt
  Br  2.52917332773550      0.88735855110544     -2.28194029953156
  C   3.94002078600064      0.47549853945015     -1.11365256359550
  C   4.41612035568173     -0.75990674705987     -0.88962338508370
  O   3.89077325986532     -1.88055897473421     -1.47711179950914
  C   4.81367856160876     -2.92727740091305     -1.22190832740357
  C   5.60010253856296     -2.54029044494248      0.03895700955108
  C   7.00833708478650     -3.15391712704999     -0.01961727933612
  C   7.94839821718636     -2.43221385311139      0.91765778332537
  O   9.03996337799142     -2.04812156602283      0.57339604757417
  N   7.41054398309236     -2.17364178498717      2.16700864101485
  C   7.40377731496990     -0.78071434606624      2.55526338854012
  N   6.73230895177150      0.11754784755630      1.94603994759631
  C   5.90596842309257      0.05645083816079      0.86985690942268
  C   5.45913730605108     -1.02403885403104      0.03171721027939
  C   5.40571530421394      1.40853498524721      0.55455616065615
  O   5.72304921155637      2.44156915540724      1.07799477991165
  O   4.46010569881854      1.54691494356088     -0.46951171371265
  H   5.49799011488683     -3.00903919438286     -2.07381966273749
  H   4.25669069270688     -3.85929943861628     -1.12091735680443
  H   5.07835789168919     -2.95916367661922      0.91582238993470
  H   7.43316844866420     -3.06149219908785     -1.01869266891271
  H   6.96433743359314     -4.21803812184191      0.23679119406110
  H   6.49184198963117     -2.58709263561848      2.27777780260053
  H   8.01443972584292     -0.51606849540307      3.40795579215877
