30
Coordinates from ORCA-job 16688optt
  Br  1.01981067216151     -0.53087163934965      0.55201573062227
  C   2.89042051641676     -0.28340144153152      0.19400263892424
  C   3.79280030217685     -1.33880186321721      0.52226273392374
  O   3.36223506194541     -2.67494103243287      0.40040442538930
  C   3.45023554169163     -3.17678615690721     -0.92524302792839
  C   4.80101464786356     -3.79038864280440     -1.25764388404547
  C   3.72845651620447     -5.52072421602816      1.61958748836920
  N   4.64849144270009     -4.84737032186850      2.15901446963678
  C   5.81553523935646     -3.04397802261324     -2.11547857429766
  C   6.11515938195545     -3.26328528603574     -0.68580331139314
  C   6.18261103831852     -2.11965449349078      0.31833042948841
  C   5.15138243082068     -1.04592399454838      0.15306765740998
  C   5.47792742342360      0.20059337699352     -0.31657111257453
  N   4.61832605282636      1.22997345895983     -0.51651848135038
  C   3.32178315402418      0.93458386877607     -0.25275849928362
  C   4.83612185437871     -5.25035979156543     -1.47149957680023
  O   3.90541250579722     -6.01284595488353     -1.40676040430770
  H   3.20848892371677     -2.37489316511113     -1.62873271504072
  H   2.69956506669850     -3.96258528814447     -1.02482195688583
  H   3.75608129847926     -6.60995975244730      1.67289287365361
  H   2.89326623405059     -5.06943214478129      1.08021321044952
  H   4.45913859396027     -3.85360820403433      1.99054250311264
  H   5.50238658406338     -2.04596199658815     -2.39722570782205
  H   6.35760531213747     -3.60219945772200     -2.86871647408298
  H   6.83239960284856     -4.05126813050927     -0.47528003668108
  H   7.17947973161333     -1.67736483151005      0.22733989864843
  H   6.11296310685859     -2.55212657433362      1.32191631550547
  H   6.52301791071227      0.41221110869100     -0.54036697397465
  H   2.60099596906241      1.73391007693732     -0.39582216799656
  H   5.84788788373651     -5.63753948789920     -1.72134747066860
