31
Coordinates from ORCA-job 16681opt
  Br  0.89735810387197      0.30745145748105      0.20229355576607
  C   2.77727390227615      0.11436465069045      0.08091323645775
  C   3.62161130601054      1.24874137563845      0.22909136591494
  O   3.01245394987259      2.48640700400214      0.17729959993560
  C   3.81324505817826      3.56265038606821      0.58394758457023
  C   5.17478840221477      3.58416941326188     -0.10864223617611
  C   4.97988811754590      3.60490186860063     -1.63180204253571
  C   6.27761926607419      3.90200749097114     -2.36456576130174
  O   6.87873397463390      5.10791342752086     -1.91620179389809
  C   7.17894456984041      5.05454014878819     -0.53642300550771
  C   5.92253067688390      4.85587017475309      0.29797747900514
  C   5.90323655298045      2.31454303848414      0.34760979530838
  C   4.99996344538275      1.11287037341833      0.25601674641665
  C   5.55265906721261     -0.16040856843741      0.13320818083021
  N   4.69605128679315     -1.26705024384135      0.14915375734640
  C   3.29773077872020     -1.20231158571908      0.05687374072512
  O   2.67146964693203     -2.26629956701704     -0.02142101596285
  H   3.96896420527462      3.52270602192706      1.67289749169077
  H   3.24660025202409      4.46567231507772      0.34197399362873
  H   4.24999315817415      4.38049295057815     -1.88564283136032
  H   4.57437949456313      2.64695396252459     -1.96529800911351
  H   6.10032523325021      4.03233531219030     -3.43212451971650
  H   6.99006800491211      3.07609179747022     -2.23969607612574
  H   7.66724783626492      5.99867279716551     -0.29127387638384
  H   7.89508400203560      4.24282734569755     -0.34550659585583
  H   5.27167225038222      5.72390067197311      0.14546704781215
  H   6.18391665926358      4.81833849090150      1.36025687735991
  H   6.24697953636991      2.46497523509044      1.37938024157400
  H   6.79946698864869      2.13014262436001     -0.25245856181401
  H   6.60497412493731     -0.35545582629567      0.28627196871745
  H   5.05577014847552     -2.18601454332428     -0.04757633730761
