29
Coordinates from ORCA-job 16692optt
  Br  1.44526620285496      0.11442206116607     -1.06855704985043
  C   3.28473363313377     -0.15975272349492     -0.65155938705457
  C   3.80186644680146     -1.39291951814692     -0.39117493421972
  O   3.00201594453203     -2.48406828159268     -0.64574009345961
  C   3.40036231431500     -3.33897310940421     -1.68587380320034
  C   4.56825781118965     -4.26079143910140     -1.34752321539699
  C   4.31593250984706     -5.14227020493720     -0.11947243891296
  N   4.38701032636098     -4.37658758602170      1.11219852590484
  C   5.66509522151554     -3.71453724181629      1.30210468106848
  C   5.94202401155598     -2.73023929267118      0.15622633314539
  C   5.88155576084992     -3.50167323589683     -1.16868880991607
  C   5.09371360231838     -1.48146610008494      0.18520220624069
  C   5.61570650607414     -0.26043212806714      0.68237478121203
  Br  7.07885204923129     -0.29897010576447      1.92895226723444
  C   4.97090362024297      0.99778803880564      0.55715614255530
  N   5.18428758193402      2.14777259795284      1.08282558539505
  O   3.93873544092663      0.99892390820014     -0.39206506142823
  H   3.65124918269574     -2.74582015711786     -2.57628359176477
  H   2.51853596661082     -3.94356606609264     -1.91625358394849
  H   4.66905688892724     -4.92953351235724     -2.21120025009753
  H   5.06324751675536     -5.95829643767372     -0.14004683579026
  H   3.32560635472929     -5.60055354411702     -0.18903985967345
  H   4.15158461530551     -4.95255076092107      1.90804445776897
  H   6.50261492671755     -4.43839000903126      1.33442620144722
  H   5.64927362748774     -3.17197826987805      2.24780698880159
  H   6.97526083249322     -2.40371165458019      0.28179604444572
  H   6.70184183216829     -4.22923722204281     -1.17391823843894
  H   6.04252147911959     -2.81638775538695     -2.00449531670836
  H   5.96788779330579      2.08079975007403      1.72377825464101
