23
Coordinates from ORCA-job 16695optt
  Br  1.11193209583491     -0.04977338553086     -0.08167444889887
  C   2.99370733320773      0.05039159425813     -0.20749363504407
  C   3.65574243738878      1.26463424297230     -0.20999456262022
  O   2.96634152588002      2.42252574454416     -0.15373471994406
  C   3.62548287464525      3.62136497526403     -0.12679363420085
  C   4.95694113120968      3.68349887761931     -0.09719318311293
  C   5.89461290569495      4.83633898815629     -0.04209998431478
  N   5.61858886894663      6.11613358196716     -0.00659902430326
  C   7.18804890068530      4.24171387419197     -0.02667837626999
  C   7.11191963818744      2.83569374401349     -0.07520891858790
  C   8.19824208156617      1.93416648665699     -0.05943762762970
  C   9.11614591006240      1.14849821031994     -0.04439149558585
  C   5.74094984251441      2.45339803618882     -0.11686347010465
  C   5.06774079823544      1.26044061156890     -0.21935784997302
  N   5.67170682893579      0.01354203760228     -0.43501832106503
  N   5.06049724138267     -1.16254596495741     -0.00494776556462
  C   3.77720473150659     -1.12080985128751      0.03983098010509
  H   2.93525862697054      4.45130497813592     -0.12863797240706
  H   4.60909335080124      6.25105351261052     -0.02781811812908
  H   8.10514378897376      4.80919499976553      0.02063996511316
  H   9.92551563097375      0.46104755235371     -0.02874545125761
  H   6.66458801306209     -0.00377828639010     -0.25473950514549
  H   3.27759544333424     -2.04203456002366      0.31795711894080
