23
Coordinates from ORCA-job 16698optt
  Br  1.12411217534427     -0.02699959351611     -0.27385721467869
  C   3.00910435859551     -0.04150433709391     -0.13897296139024
  C   3.71649478950873     -1.18927613149409     -0.18661093356738
  O   3.01851335109311     -2.34899654446697     -0.38614601707257
  C   3.32238968105515     -3.38344922415391      0.54027469680681
  C   4.47862666582011     -4.17334750701981      0.06972700855873
  C   4.65356637659328     -5.50788420194287     -0.16306455536821
  N   5.92433623421926     -5.75567565752618     -0.61538223374002
  C   6.50127162524670     -4.57979724825884     -0.66074609392202
  N   5.67067979475651     -3.57575496484453     -0.26254423251709
  C   6.10641337989480     -2.19322045937476     -0.18937895352558
  O   7.32831564680058     -2.03309433087878     -0.23322480022595
  C   5.16381286360014     -1.11575835921326     -0.07891923765742
  C   5.72941180736431      0.16967551071683      0.08338590726337
  C   4.98292488338509      1.37209009112829      0.11730137719249
  O   5.40207079946331      2.52578111638029      0.24758804877273
  N   3.59392021736414      1.19184455088173     -0.02354795499102
  H   2.44330416441548     -4.02485258481214      0.60140689327414
  H   3.50400126199190     -2.93883121026430      1.52502862902914
  H   3.92991878427888     -6.29599489050566     -0.02244550940851
  H   7.51074445509677     -4.36412363304960     -0.96430533919479
  H   6.80147408741393      0.25348554371744      0.16105170846275
  H   3.02959259669798      2.02468406559119      0.00638176789933
