21
Coordinates from ORCA-job 16691optt
  Br  1.18489888581898     -0.10859320359056      0.00990954189929
  C   3.10458598504149     -0.11685924217514      0.00985455876645
  C   3.77099352613772      1.09079459203452      0.01026481713265
  O   3.35599802673069      2.40019587960320      0.01087477290270
  C   4.53358823630211      3.24917203917212      0.01092774857481
  C   5.70566392495893      2.29688887140878      0.01059714375156
  C   7.09131689506810      2.36271577947146      0.01057724117279
  N   7.85849275061467      1.25896966915479      0.01014601611395
  C   7.29770552917444      0.04757181753839      0.00972652766633
  C   5.89523626583582     -0.15979854436518      0.00969242781407
  C   5.16243572784242      1.02436086737524      0.01015535175326
  C   5.09053623424458     -1.34880380306044      0.00929077929920
  C   5.65848955612267     -2.66322353600155      0.00871480583857
  O   6.86048178125577     -2.92745598871051      0.00856442694951
  N   3.71485067679996     -1.27300183496729      0.00937637122577
  C   7.75795866849796      3.63962668185562      0.01103496908922
  N   8.22695862181333      4.68915242821754      0.01142552513210
  H   4.49799681055918      3.88699354636428      0.89842771626715
  H   4.49784826058815      3.88730428118156     -0.87635020318382
  H   7.96624708856857     -0.80116595321979      0.00941820012180
  H   4.90271654802440     -3.46984434728704      0.00837126171266
