29
Coordinates from ORCA-job 16694optt
  Br  1.07769073142866     -0.71161918215361      0.22409634465342
  C   2.95509489508212     -0.91579479651001      0.46308518082448
  C   3.68973788717690     -1.69099762266321     -0.32761260183746
  O   3.11909465869157     -2.49374699196129     -1.27332073217972
  C   3.95419734826939     -3.25014110246893     -2.12132764591031
  C   4.82762405687300     -4.32312844883240     -1.45165370775378
  C   4.11530937078054     -5.10102527411327     -0.33996490351547
  N   3.90427343061280     -4.26269638610787      0.82136762965679
  C   5.07722492493019     -3.60400532839446      1.36541655886207
  C   5.80853853689603     -2.81761398245346      0.27540618935858
  C   6.12291999996083     -3.74644159725906     -0.89066594720954
  N   5.07716994349744     -1.62797116118571     -0.20450076482551
  C   5.60312980828707     -0.36022761519143      0.27777492821652
  N   6.82229018066276      0.01771562450218     -0.06555638695435
  C   4.80276578275403      0.40327312939883      1.17375157954224
  O   5.05774173334247      1.43897743399655      1.75878215892890
  O   3.48845342552847     -0.15785549290774      1.43691815560820
  H   4.59881254487571     -2.58869291485937     -2.71122446383517
  H   3.25208443870703     -3.73843048287175     -2.79942747891035
  H   5.07640800475170     -5.03383822645727     -2.24740334375536
  H   4.73026336714817     -5.99348236629785     -0.11870641812193
  H   3.14068278028539     -5.45054061835468     -0.69043058528388
  H   3.34771053181977     -4.71304826178049      1.53101935279344
  H   5.80210298944507     -4.31287011718996      1.80520238540276
  H   4.75692329962417     -2.91290792825191      2.14822876070598
  H   6.73817995920655     -2.43169211351472      0.69310890616806
  H   6.76700757509361     -4.56257810540199     -0.54444061468439
  H   6.66302513253925     -3.19116547525653     -1.66060934415919
  H   7.16754266172913     -0.62945459545852     -0.77331319178503
