25
Coordinates from ORCA-job 16708optt
  Br  1.26486113196265      0.00028587816695      0.60610601882218
  C   3.12264901672382     -0.01231890040881      0.12688357034492
  C   3.76499227388683     -1.23403160663732     -0.25969352809493
  O   3.73181972419201     -2.41919712301066      0.55186818362237
  C   5.08238343501093     -2.78062395590614      0.85399566942636
  C   5.94489497580464     -2.27026009001589     -0.32529680721417
  C   7.30951457515734     -1.61029841987034     -0.04401758931144
  O   7.19773972885746     -0.19717854552020     -0.35517670695765
  C   5.85288809157928      0.05930034534772     -0.48205213305651
  C   5.12305829223609     -1.07523727628677     -0.67482347883108
  C   5.20491675548663      1.26828763274700     -0.23116534273065
  C   3.81444834423613      1.16123652738760      0.05882116457121
  O   3.28332339429172      2.40394960090834      0.32474149303565
  C   4.26904233633343      3.37651185193018      0.01104752853878
  C   5.64276531664858      2.66632317397364      0.07090766683144
  C   6.28831800124106      2.83609561436160      1.39034740328722
  N   6.79530731653103      2.98114101116541      2.41049801945602
  H   5.11050983029093     -3.86199168501680      0.99887354861796
  H   5.40243519853700     -2.28048327908684      1.77870513651584
  H   6.00955768308313     -3.03375384992581     -1.10817064876241
  H   8.11063523405012     -2.01806726108957     -0.65989075000471
  H   7.59641491053373     -1.69030600221549      1.00941583380240
  H   4.16936644624705      4.20011610527331      0.71634997571276
  H   4.11097724149619      3.73723164408968     -1.00967472292046
  H   6.32518074558211      3.09526860963919     -0.66659950470110
