24
Coordinates from ORCA-job 16703optt
  Br  1.20843258966318     -0.07464519989847     -1.42505576354902
  C   2.98110457109932     -0.07705553658900     -0.80865507846540
  C   3.70986088281276     -1.17453996800628     -0.52917243181335
  O   3.35358183252846     -2.48202188552921     -0.74618973850769
  C   4.30095711332796     -3.27146063866527     -0.01434444419806
  C   5.57308497818921     -2.42286125270263      0.11224745840810
  C   6.36095858957644     -2.64255603397491      1.39436131756950
  N   7.57109928677932     -1.83472974811028      1.39095103379389
  C   8.77147455419390     -2.45669358201704      1.33133857488048
  O   8.96134314369982     -3.66097234782647      1.30795332337303
  C   7.52982567910882     -0.40820146539646      1.52486996961905
  N   6.65801246049691      0.42722942076363      1.09231883417662
  C   5.51152765445465      0.19358835556125      0.41479701971333
  C   4.98409890711816     -1.05424498676221      0.03237158398580
  C   4.71675266440869      1.37759785531608      0.10280199275247
  O   4.97930731660962      2.52867473370699      0.32700801032873
  O   3.49356929075063      1.16222592060038     -0.55946451729817
  H   4.44036307192565     -4.20774364868388     -0.55252746790766
  H   3.88910890103791     -3.47971257227813      0.98075059889459
  H   6.25376000131893     -2.62824831990706     -0.72797126455094
  H   6.67653342199839     -3.68027823983361      1.50187950843387
  H   5.74611014932064     -2.35414700760603      2.25161265831695
  H   9.60702515639843     -1.73950465971063      1.31603555432884
  H   8.41310778318207     -0.02069919245074      2.02208326771503
