23
Coordinates from ORCA-job 16718optt
  Br  1.36839484568858     -0.80181426859094     -1.61253728402402
  C   3.08613184542003     -0.28904384582750     -0.06716487640129
  C   3.75728198349404     -1.38966314428312      0.38610015314269
  O   3.06212656941691     -2.48915118272426      0.85114777042183
  C   3.08867632126259     -3.59925479267135     -0.02007447441652
  C   4.46365328349245     -4.17500724711109     -0.00147844541479
  C   5.58925729718483     -3.60891412315328      0.42011973250414
  O   6.65089958326971     -4.48117004617654      0.30582662700454
  C   6.16546434862662     -5.66459027527601     -0.18737498556591
  N   6.82326170684166     -6.73395625758540     -0.36228604740630
  N   4.83956984204283     -5.45823448865234     -0.44418144132825
  O   5.92784164431882     -2.39611835373942      0.87148583832820
  C   5.16882596818602     -1.32321991207413      0.42153452593004
  C   5.84467610842459     -0.20804913806387      0.04269416788348
  C   5.11905705610371      0.94992689030263     -0.40257119241967
  N   5.55776587908255      2.08301367942243     -0.78901108921367
  O   3.73898427751130      0.81780549923934     -0.41428499856673
  H   2.77257295387158     -3.29976129397556     -1.02436177104336
  H   2.36726103823553     -4.32280988127696      0.36852500403829
  H   7.79037711161441     -6.60095978943539     -0.08882278637498
  H   4.21842350075384     -6.22017867249872     -0.64641882575396
  H   6.92378155128372     -0.19048060753236      0.05131846749173
  H   6.57171528387353      2.08063125168391     -0.73218406881549
