22
Coordinates from ORCA-job 16712optt
  Br  1.78278026963120     -0.25199259806350      1.82715678376418
  C   3.17365139780442     -0.14992303111351      0.55687824192938
  C   3.91073389456112     -1.24577484967340      0.19887754430621
  O   3.95818675109975     -2.50198583381176      0.76289841411145
  C   5.34150068655642     -2.93064388705663      0.63515514658266
  C   5.89629237708540     -2.25189938633860     -0.63544132840005
  C   7.22714642422947     -1.43856064771573     -0.63188071027976
  O   6.93615193569940     -0.12347723771294     -1.15452520366599
  C   5.59356706314025      0.10538140754333     -0.87833444017384
  C   4.92971748625778      1.25720682247842     -0.55508138171512
  C   3.62276319451885      1.13401380630139      0.07077447890252
  N   3.02230814841094      2.29316397422469      0.30730005157937
  N   3.68835148216918      3.37099897043152     -0.02037806886780
  S   5.24388223585264      2.94753799347052     -0.69582913325322
  C   4.94971212431938     -1.11062554662354     -0.70928137547453
  C   8.30291474824517     -2.04656876296646     -1.48967867362803
  O   8.80460014820959     -3.11355086935190     -1.25879807074426
  H   5.33806060264250     -4.01817824937168      0.60066435296924
  H   5.88372594670211     -2.58984119808307      1.52343830614342
  H   5.86882230086072     -2.93807489395296     -1.48914079278135
  H   7.60642117633297     -1.34042884806824      0.39330053562895
  H   8.59070960567064     -1.44577713454591     -2.37307467693343
