29
Coordinates from ORCA-job 16735optt
  Br  1.19236769142653     -0.25646057114877      0.90446185178082
  C   3.02184284378285     -0.20568956300666      0.39176776148510
  C   3.78462990541568     -1.33825760367948      0.58094658863099
  O   3.24687891441528     -2.46336878690084      1.15655273249318
  C   3.14187572928685     -3.55158593245437      0.26116976616969
  C   4.39512007043231     -4.42641700223462      0.19099905087341
  N   4.25320629184346     -5.46956555111951     -0.82601872535451
  C   4.61288902204911     -4.88878699602124     -2.13954956525866
  C   5.44203538783040     -3.63611550896676     -1.81416073598195
  C   5.65790570727130     -3.70670903436787     -0.29106124528514
  N   5.95453815733458     -2.46514867961149      0.40306952511685
  C   5.11836884587167     -1.34566536732971      0.15944014651363
  N   5.67870860321094     -0.26234967143602     -0.41465354624344
  C   4.95421508893716      0.81940942421328     -0.57072944097028
  C   3.58128493446776      0.96463315583399     -0.20261249278728
  C   2.90792447503270      2.18747309393026     -0.47480634270522
  O   3.43259531975907      3.17715488944375     -1.03652368569324
  H   2.87816441924026     -3.18318072405109     -0.73780644360696
  H   2.31167313142988     -4.16823010091007      0.61859211607113
  H   4.56771810463507     -4.86636838970885      1.17575159711522
  H   3.32322026692159     -5.86878526606797     -0.83185880865110
  H   3.73190582966757     -4.62786345781064     -2.73427616119010
  H   5.18767524663728     -5.61964919503080     -2.71200676090260
  H   4.89607383857768     -2.72159987880939     -2.05066660710456
  H   6.38689581163912     -3.60383589375413     -2.35565995408081
  H   6.48741807502639     -4.38722880405740     -0.08425650833058
  H   6.90173249914178     -2.16995137008657      0.20194119573719
  H   5.42715916188644      1.67998862561103     -1.03010790549472
  H   1.85197662682922      2.23415415953198     -0.16493740234606
