23
Coordinates from ORCA-job 16734optt
  Br  1.16902202849034     -1.65831413032384     -0.45580508126556
  C   2.68657976200994     -0.58858453734408     -0.17819294780107
  C   2.64263627085272      0.73526196781852     -0.49223980917718
  O   1.57704792535757      1.28710920151283     -1.08875968183145
  C   0.75554634503493      2.07651468329909     -0.26445158483094
  C   1.25886367815437      3.27707515919875      0.18006788687167
  N   0.50500148381586      4.25124595942732      0.78116676990958
  C   1.32511794259852      5.30064972237440      0.90528115320181
  C   2.61402377681199      5.06217823392953      0.40820143941732
  C   2.60310967032552      3.73213341194974     -0.04500012927888
  C   3.73000434583569      2.99301371944417     -0.54912209233075
  N   4.80258978768985      3.43082772019834     -1.07501221668218
  N   3.72865169049884      1.54429467607501     -0.29676954062301
  N   4.87096765243491      1.05887314371129      0.19228889605918
  C   4.94501821518797     -0.18801087677907      0.48990276204103
  C   3.88390667164707     -1.18440971536675      0.35387488148921
  N   3.99051864823730     -2.42851140750750      0.66259729699448
  H   -0.26243981188435      1.73208875950222     -0.18820978677859
  H   0.97500610276544      6.21865737108030      1.36117053394315
  H   3.45998095736910      5.73274236874506      0.44414820065733
  H   4.71911243857342      4.44099345664195     -1.16733630220177
  H   5.90113801810018     -0.51311464801541      0.88906766668046
  H   4.92959640009279     -2.61471423957189      1.01113168553616
