23
Coordinates from ORCA-job 16732optt
  Br  1.12551622594349     -0.43334025872027     -0.82121986290182
  C   2.90162354606663     -0.15567530504092     -0.23556548200444
  C   3.80985050424884     -1.16330770998049     -0.20289540363031
  O   3.53403482506453     -2.49120284480363     -0.45149836694226
  C   4.79309457227612     -3.13537137568368     -0.67980736219806
  C   5.84562774550154     -2.30339211630300      0.06702643851497
  N   7.12948553007344     -2.18245562509563     -0.63163069735524
  C   7.87933028089875     -1.06803560132896     -0.21076959197454
  C   9.22171113584636     -0.83400307881301     -0.08399932933921
  N   9.43548004422870      0.47330493314959      0.28890014949567
  C   8.24927327295183      1.01181758663502      0.39812713024120
  N   7.25547559552698      0.11479231182522      0.10609277632380
  C   5.84239535236527      0.24391434786727      0.13646428702439
  C   5.16156343774138     -0.97764963620733      0.06920948829079
  C   5.22775958642342      1.50048378748275      0.14398275732588
  O   5.73614982984337      2.61904159556013      0.18450545215381
  S   3.37364193417402      1.49073579987564      0.14357578539976
  H   5.02562494754906     -3.11525818504303     -1.74904304770359
  H   4.70009984260971     -4.16431469588050     -0.33368431112505
  H   5.99991180633889     -2.69261838474753      1.08782114063985
  H   7.69265389988055     -3.01933187280138     -0.55290993904037
  H   10.03169982346733     -1.52474243640501     -0.25525082866090
  H   8.00899626097972      2.02560876445876      0.66656881746569
