26
Coordinates from ORCA-job 16731optt
  Br  2.91390105816038      1.29642978640908     -2.84341201850727
  C   3.75240366057131      0.75281827932323     -1.24320199490826
  C   4.14907653851277     -0.55728099363105     -1.01929454812814
  O   4.30486573316288     -1.52612352556658     -1.97249389026903
  C   5.29385749769528     -2.45374820294211     -1.46471505548726
  C   5.48655608011140     -2.15625270427559      0.03982561052150
  N   6.82007626347074     -1.67898684569701      0.49210793370425
  C   7.56454564625689     -2.64143551646469      1.30709837321733
  C   7.14800288992846     -2.37017618371635      2.75602291469131
  C   6.97701887706908     -0.86131977320321      2.74162278976916
  O   7.12742392300681     -0.12228855790079      3.67825188708971
  C   6.61660989955682     -0.45354392190914      1.31908817237068
  C   5.14329243075468     -0.04045336602808      1.14390130800616
  N   4.77934062402839      1.29196363406662      0.86919233372352
  C   4.02969473568304      1.73944101918247     -0.23096254584211
  O   3.70614030465345      2.92539806177510     -0.27725031709408
  C   4.63745933240849     -0.95848851948168      0.20054524644870
  H   4.92450075166529     -3.46165711382145     -1.65612364441438
  H   6.22643304408768     -2.29204912755047     -2.01022387288531
  H   5.18713692146920     -3.02608842255314      0.64703760161577
  H   8.63978759537931     -2.47748082851102      1.18933901589060
  H   7.34679407387397     -3.65758618339806      0.97633420216759
  H   7.84197772529744     -2.69086445195776      3.53025070003730
  H   6.16241801362416     -2.80512806058947      2.95224275693786
  H   7.27655693015506      0.36680356184115      1.01096342713777
  H   4.91312944941690      2.01309795660006      1.55985361420658
