22
Coordinates from ORCA-job 16733optt
  Br  1.79636325708917     -1.99984651522871      0.73670318848789
  C   3.07052559942289     -0.69127482057877      0.28441091577592
  C   2.73712792699960      0.65564055741241      0.31046741401150
  O   1.47701933428344      0.91388184042351      0.61433868602696
  C   0.71908941690263      2.02210045278770      0.40409990684164
  C   1.15828385776131      3.28057033081823      0.09045000182665
  N   0.22850511025594      4.28388585317425     -0.09686433297638
  C   0.94667294589757      5.39182396232782     -0.26787554867965
  C   2.33279418927668      5.17846237555871     -0.18572900787228
  C   2.49331204347548      3.80771154356971      0.02990396083099
  C   3.73414334596766      3.11705345405670      0.24912004778072
  N   4.79555491296047      3.79003979541679      0.53668915821283
  C   3.78443511679096      1.62395717482597      0.05400319884289
  C   4.95711366081240      1.10638049397078     -0.37095993141807
  O   5.24298111669229     -0.19755765509976     -0.51719203147734
  C   4.34340235342349     -1.18304554509238     -0.13955754403646
  O   4.71065194248181     -2.32574965424004     -0.23638881210123
  H   -0.32686273828944      1.80048788003869      0.53873791938759
  H   0.45286774581831      6.33927033375549     -0.44795669315548
  H   3.12582014568436      5.90323375038518     -0.27375736630029
  H   5.59227022452045      3.17927974424300      0.69168719443398
  H   5.79392849177250      1.72669464747468     -0.65533032444238
