20
Coordinates from ORCA-job 16741optt
  Br  1.10025224867236     -0.02253441138815     -0.08563153457253
  C   2.97383322160544      0.08330675471385     -0.07692569855199
  C   3.65112504344209      1.24478022823814     -0.07442439429181
  O   2.96723205658106      2.42637379255972     -0.07562855806093
  C   3.67195942990264      3.57034455419405     -0.07605735790674
  C   5.02266409529793      3.61115600726660     -0.07575152429110
  N   5.62360990594084      4.86898126896502     -0.07706656414633
  C   6.89893656825601      4.86305367692731     -0.07782347769437
  C   7.76313708339551      3.63887942173678     -0.07737181427166
  O   8.97936796770103      3.80240566546027     -0.07924095904581
  N   7.15415065743940      2.42395173995589     -0.07479739585666
  C   5.82647246613852      2.40582287923451     -0.07415433197567
  C   5.09731081930450      1.16957446154544     -0.07182098930164
  N   5.70043103940164     -0.00489768163074     -0.06861730386335
  C   4.98867999580483     -1.15913620057329     -0.06685423429320
  N   5.44146643345880     -2.34453061575044     -0.05947681269347
  O   3.57641889230713     -1.11197358582342     -0.07438574465857
  H   3.05356137972973      4.45507854458437     -0.07661981478608
  H   7.42953008748214      5.81307335827314     -0.07905149126289
  H   6.45486060813834     -2.27170985848904     -0.05529999847520
