27
Coordinates from ORCA-job 16747optt
  Br  1.27272941473249      0.43521145319915     -0.01917076623471
  C   3.14096264177846      0.11787779064184     -0.12327935127864
  C   3.64410773660924     -1.13520995412866      0.12757482304386
  O   2.72813476618630     -2.08310729417031      0.55030956030902
  C   3.11163858012630     -3.40932766548277      0.31122285741689
  C   4.44374214359206     -3.69555980059390      0.98788912190555
  N   4.76307168795246     -5.11432815609033      0.91646000617233
  C   5.81154500544384     -5.71200519792393      0.25998313829006
  N   6.10231545238304     -6.96529879670928      0.29368370519615
  N   6.58942062538896     -4.85477830285377     -0.47299599215956
  C   6.06942747593005     -3.56472632378205     -0.88687982615990
  C   5.52207589463013     -2.83365675780877      0.34027607761386
  C   5.00555001436689     -1.45405874227867      0.00083623459623
  C   5.97681824975893     -0.51669040095530     -0.43457262853919
  C   5.79349069495384      0.82566282690577     -0.76578108989034
  O   6.61413395573863      1.65451158452233     -1.15260319657318
  S   4.08464466706300      1.50273544022738     -0.59161370013251
  H   3.19204152782530     -3.60636711661208     -0.76540160002823
  H   2.32214193559398     -4.04185019448547      0.72215402710250
  H   4.34372281630600     -3.40120084264773      2.03712679083077
  H   4.20285271304919     -5.73476307598295      1.47489712509347
  H   5.48036924009897     -7.46621160002192      0.92023444643436
  H   7.22708424348358     -5.34251073326132     -1.08061214761983
  H   5.28204102181489     -3.65791573639937     -1.64506239791765
  H   6.87855523459943     -2.98381215199080     -1.32430245869672
  H   6.36120166339311     -2.74475905908600      1.03971098878937
  H   7.00918059720083     -0.84486119223102     -0.50908374756394
