26
Coordinates from ORCA-job 16745optt
  Br  0.71458980516193      0.66308156098181      0.27308328782415
  C   3.03430550816798      0.03773767605415     -0.41615899117328
  C   3.60531952714182     -1.19432588332130     -0.47521235245211
  O   3.00126843922535     -2.40217917520667     -0.80526885207588
  C   3.86613302331933     -3.42321136440294     -0.35733278899960
  C   5.28484439702571     -2.82228230241072     -0.26597100785379
  N   6.11235477633460     -3.35052912261198      0.80618283401650
  C   7.45077446564720     -3.47093037665238      0.49027625680233
  N   8.43695924676524     -3.70194611908981      1.25559533418162
  C   7.58578405297451     -3.29836603602812     -1.00182479783376
  C   6.16322679794286     -3.11304791464732     -1.48868059696160
  O   5.77160938406923     -3.21322643331221     -2.61368843196074
  C   4.96090706000964     -1.34589962720994     -0.16114075079803
  C   5.76694582838717     -0.31179754981139      0.20445008253462
  C   5.20403301480966      1.01883127530040      0.25955561880551
  N   5.78372966768664      2.13276930475651      0.57314465669040
  N   3.84896417204891      1.06076532605777     -0.07062320813383
  H   3.81267432456636     -4.25907085988018     -1.05390061279415
  H   3.57051700713160     -3.75640322229003      0.64565879679278
  H   5.86064805727606     -3.11329843640494      1.75529785678200
  H   8.14201982489036     -3.77710442810367      2.22863855747952
  H   8.07704801185427     -4.14148833525858     -1.48306479499694
  H   8.16505767082596     -2.39841905753173     -1.21927824117292
  H   6.80536132385877     -0.45306235755412      0.48027533316737
  H   6.75952454018644      1.95910898328512      0.79197049985695
  H   3.42340007269196      1.97529447529240      0.02101631227290
