22
Coordinates from ORCA-job 16752optt
  Br  0.94205712991647     -0.72287068909471      0.25290327660095
  C   2.84860773867601     -0.41670326033225      0.37213026430109
  C   3.69077682256287     -1.51563075023593      0.35700507543641
  O   3.21479406456178     -2.71752115992212      0.85599588196754
  C   3.17371604633500     -3.73863353313561     -0.10624602628672
  C   4.46905934379858     -4.54109805511205     -0.10136286570251
  N   4.54182928326743     -5.45492392375769     -1.22744211836770
  C   5.13640831545151     -4.81428754196271     -2.30013678925285
  O   5.11639920839898     -5.16548606467594     -3.44477186948876
  O   5.78198765174040     -3.72221763922701     -1.84492851215833
  C   5.73481768703944     -3.72337106247467     -0.40096662660217
  O   5.87318419105817     -2.47784822316472      0.13530851134466
  C   4.98049037464875     -1.43469506101398     -0.15109320686096
  N   5.56619194476732     -0.42714954730013     -0.79080273813790
  C   5.03464834125734      0.78062184799659     -0.91903988200729
  O   5.47024610808341      1.73561646087336     -1.52457065383845
  S   3.42156322618736      1.15590540860895     -0.03248669274088
  H   2.99496839710394     -3.32327219416539     -1.10407327033583
  H   2.33983543364626     -4.40057214007548      0.14552445596210
  H   4.58634016605000     -5.05282972635317      0.85401504317514
  H   3.77512374160820     -6.06785246794392     -1.45710449091359
  H   6.60795478384069     -4.28318067753139     -0.05785676609394
