22
Coordinates from ORCA-job 16751optt
  Br  1.10540779836999      0.15434050796433      0.54696156132328
  C   2.97688146362541      0.03821876306833      0.38462094371258
  C   3.61291625544565     -1.15353534423008      0.20870203150399
  O   2.95033377151426     -2.34209509077302      0.07882753682510
  C   3.90573044627578     -3.29346477487866     -0.15152144874529
  C   5.14160058106122     -2.72973471813152     -0.18069615382898
  N   6.32225272958543     -3.40616795046102     -0.50051737464601
  C   7.55145438348351     -3.17461701054281      0.05289476231921
  O   8.40712494670346     -4.04688701702766      0.06426670594010
  N   7.79163805870403     -1.94124908622219      0.60847428523474
  C   7.38169112740976     -0.60521397721604      0.23218241751548
  N   8.32289006882419      0.28001236952444      0.12001938772556
  C   5.99059260121567     -0.30582332802582      0.12406518692942
  C   5.00748718661157     -1.33585911752174      0.07752922750476
  C   5.58895935157129      1.09467744544390      0.11434842079830
  N   6.27685363620240      2.15940499164375      0.01155966210141
  S   3.84847834940311      1.53723721898280      0.39321284956801
  H   3.56422681390831     -4.30333271015939     -0.29678792299148
  H   6.23224517092911     -4.35777202162905     -0.81922727496055
  H   8.74150177226709     -1.94009335440357      0.95091744323236
  H   9.23944347380495     -0.12755510887909      0.27555790415029
  H   7.26029001308375      1.90650931347411     -0.09039015121227
