20
Coordinates from ORCA-job 16756optt
  Br  0.86931205826732      0.02976731818885     -0.45874195245118
  C   2.75629069670866      0.09103470205074     -0.27019635014380
  C   3.50391976299888     -1.01154414188022     -0.54950348990117
  O   2.89828889170256     -2.16837499351921     -0.98449986105526
  C   2.46763667644292     -3.04465849841080      0.02964196263303
  C   3.56134016644302     -3.91307064865978      0.60303866726307
  O   4.47205383391830     -3.34409754482791      1.53837070282460
  C   4.98483993763089     -3.76388944028684      0.30097322837883
  S   5.74879886245632     -2.52166414443764     -0.76561872059045
  O   7.09516551406504     -2.42681173138096     -0.27374381477688
  O   5.53988477404923     -2.99539785153673     -2.11180381027325
  C   4.90850536125769     -1.00330150732879     -0.42531876300176
  N   5.70864727503151      0.00549978460659     -0.05828299580758
  C   5.29012699847040      1.21692442389136      0.24936929121335
  O   5.92883031436005      2.19821942326156      0.55785099322527
  S   3.43057284098517      1.59591440856110      0.25014168772723
  H   1.72502719278743     -3.69495308166566     -0.43520020184365
  H   1.98189405975932     -2.48987143273618      0.83977374346897
  H   3.22871505569079     -4.90838565657854      0.89132143793976
  H   5.64014972697447     -4.63233938731090      0.31942824517087
