21
Coordinates from ORCA-job 16755optt
  Br  1.01979974764999      0.07588965865232      0.06122030881144
  C   2.92124463635416      0.05028999527792      0.05818323967626
  C   3.60863409625269      1.24214720811341     -0.00478250806592
  O   2.90819028987860      2.39951488735544     -0.13744462929903
  C   3.50370104984534      3.60591068648123      0.33157159493736
  C   4.95969132394986      3.67731321568538      0.00169281876945
  N   5.63027033554072      4.79616742315986     -0.07127942842687
  S   7.22620655928373      4.33887203446927     -0.32623883572458
  N   7.02999407312996      2.69017547168839     -0.32857618025331
  C   5.69972787475047      2.48458273375871     -0.13967409953731
  C   5.03256129576750      1.23303494373838     -0.03478200698527
  C   5.68914699622800     -0.01035686153298      0.00109723638730
  C   4.96920107606671     -1.19962036475306      0.06615503742814
  C   3.57184485327967     -1.18655260153751      0.09456496978423
  C   5.65810267957775     -2.45605461227569      0.10365011391132
  C   6.23311559205470     -3.51089277333237      0.13577133645381
  H   3.36356286449355      3.67596929844367      1.41800762904895
  H   2.95256612979454      4.41722197937674     -0.14059541897110
  H   6.76984935820530     -0.02302518526674     -0.03592151927093
  H   3.00635857634353     -2.10441165211393      0.14421160338838
  H   6.74523059155317     -4.44117548538842      0.16416873793767
