24
Coordinates from ORCA-job 16761optt
  Br  1.15781407756082     -0.02477660973394      0.27328094845610
  C   3.05248476311501      0.04808410120942      0.16743918421926
  C   3.69335900653553      1.25019340734915     -0.00369447804236
  O   2.97890191694936      2.39579516351895     -0.16058353422482
  C   3.63454953535356      3.57363230967694      0.26489589517559
  C   5.02271698192759      3.74542356774774     -0.31624359744404
  O   5.65337084430508      4.77352836495408      0.43021391760833
  C   6.56747711070509      5.40008741920333     -0.44054352635382
  C   5.96708375338849      5.15771694643031     -1.81208504740145
  N   6.26212806275108      5.64857657882725     -2.93574015948762
  O   4.95118686899620      4.29826432998826     -1.65272521231106
  C   5.83400773170600      2.46540331875036     -0.32042494447013
  O   7.07354453126979      2.55435063235604     -0.51973077521350
  C   5.11241560186573      1.26496962176518     -0.08939628972235
  C   5.75019216168866     -0.00127305209754      0.01120126431603
  N   5.11809061234015     -1.14878351428644      0.17427754825752
  C   3.78490326401385     -1.14340507303274      0.25203489928007
  H   3.74138811262615      3.56951561912369      1.35468930417960
  H   3.00399182940765      4.40836070761955     -0.03628581534215
  H   7.55594660282689      4.94260297093292     -0.37779603456213
  H   6.60590465686768      6.46570418959908     -0.20960916943243
  H   7.04206955786271      6.29161846456529     -2.82509094990520
  H   6.83058812043861     -0.02698407898302     -0.06551788465916
  H   3.27488429549822     -2.08860538548387      0.38543445707976
