22
Coordinates from ORCA-job 16767optt
  Br  1.09131137154176     -0.23911760158710     -0.11159828733877
  C   2.96597244113249     -0.16577180741410     -0.08814978017702
  C   3.69021891280354     -1.31684910334953     -0.07596177006994
  O   3.03773124076024     -2.46909434878045     -0.07495488281572
  C   3.65230550173125     -3.73463091955483     -0.06723926572686
  C   5.01074520484643     -3.71166646221987     -0.06217771071151
  O   5.90222828932670     -4.73367728274803     -0.05869078590898
  C   7.19284139406406     -4.12547828307605     -0.05681021113387
  N   8.25007305198694     -4.84475189554605     -0.05473891072969
  N   7.07536778519360     -2.77671099627543     -0.05794895598732
  C   5.75162234416722     -2.54258723878855     -0.06103586316717
  N   5.08624032836003     -1.29623008897532     -0.06447812387422
  C   5.79555422563185     -0.08782977549277     -0.06228439567308
  N   7.05160594301407      0.06536696515316     -0.05558185637041
  N   4.98936671197643      1.04184488840856     -0.06716193986018
  C   3.60871043034341      1.12808048149987     -0.08133569256177
  N   2.96053582145983      2.23234946802711     -0.08700343623849
  H   2.94931501862081     -4.54365795947875     -0.06932658023480
  H   7.98167518026707     -5.82396139798603     -0.05505141340194
  H   7.53622876711973     -0.83066263054009     -0.05253971416900
  H   5.52590996259765      1.89507335094284     -0.06337298622584
  H   3.60144007305485      3.02296263778144     -0.07955743762341
