23
Coordinates from ORCA-job 16779optt
  Br  6.65327050330287      0.80191110656967      2.79652043583503
  C   5.06065807310104      1.70619163479694      2.32524577069486
  C   4.55512023552610      2.70411340380509      3.17446805617827
  O   3.50661727731936      3.44772756451028      2.62937867202265
  C   2.64221620441373      2.94780520809297      1.70361206242013
  C   3.12664205925979      1.90891623122052      0.90833791513754
  C   4.36980378075948      1.33617137438428      1.19079853966738
  C   1.34715853248800      3.48031497485386      1.53857116009091
  C   0.44015873790019      4.37119468677323      2.17510674425836
  N   0.39781090794220      5.12628268672643      3.24798187387578
  C   1.42773052349052      5.02492997502725      4.12267102910895
  C   2.11552647960410      3.96192423884338      4.61022549885290
  C   3.29955567487097      4.54159973950666      5.11587957812770
  C   4.57349561380622      3.83700733418526      5.26232949371120
  N   5.03904289430929      2.98988791132440      4.36730661385994
  N   3.22744819866330      5.85449511738101      5.14466713836577
  O   2.01598496397139      6.16900395921040      4.54612194308143
  H   2.50611463311870      1.52226973766100      0.11395923963334
  H   4.76396118454367      0.54768487137709      0.56404036490512
  H   0.89365549734107      3.05184544860860      0.65187957889450
  H   -0.47442154402190      4.45468531276375      1.58599444872942
  H   1.91580775092933      2.92405151856490      4.41886629766842
  H   5.21664181736050      4.05498596381297      6.10703754488035
