24
Coordinates from ORCA-job 16777optt
  Br  8.23071361696355      4.34742570915039      2.73205203295483
  C   8.55907465063895      2.71015143454372      1.86137892605204
  C   9.54160625764806      2.58512265497744      0.93601444981214
  O   9.74872465353469      1.36126706579163      0.42423208465924
  C   8.62016880878062      0.60797602307089      0.12496623456858
  C   7.71520961637914      0.51579162957660      1.25455767688979
  C   7.70628287395183      1.57089293063940      2.09932395991368
  C   8.44120747763975      0.26798069588989     -1.16834497149562
  C   9.19482676830763      0.96974814633332     -2.20763281675514
  C   10.45722410426629      1.37280780647703     -2.01883801010738
  C   11.13933173684631      2.55103317161694     -2.59468131961372
  N   11.23018279238343      2.81924655712846     -3.87234633487344
  C   11.75770964914753      3.37805508657275     -1.60585793706046
  C   11.56517810550928      3.42181372102849     -0.21078321270056
  O   10.28661702497995      3.55408059809387      0.46415827464324
  C   12.55792260924786      4.01207163377858      0.59837141543385
  N   13.39976609520250      4.47301397103068      1.24691413902647
  H   7.00402549146520     -0.29413489418641      1.33320697875352
  H   7.00652769300561      1.61762855759394      2.92333403416517
  H   7.56598483235861     -0.32409094903301     -1.40907532819850
  H   8.60500065162708      1.38930783044523     -3.02002258084603
  H   11.02669947260104      0.90502507421843     -1.22969291043447
  H   10.79767836747640      2.05979963616058     -4.39670463433914
  H   12.55533665003837      4.01498590910110     -1.98053015044808
