22
Coordinates from ORCA-job 16774optt
  Br  6.53922943302805      3.79064001307780      3.38758714161315
  C   6.58514272752565      2.33472956301066      2.17820476053630
  C   5.44669826935524      1.63748524959398      1.77775626559131
  O   5.72710355114351      0.81599998943038      0.67778924368083
  C   6.29207155566879      1.51102974299044     -0.38086652320497
  C   7.32015270346934      2.29667059135510     -0.02904389151548
  Br  8.43349832181646      3.27899161318232     -1.17342400119678
  O   7.63990308031727      2.45423055766434      1.27082227172235
  C   5.54968169978797      1.58155819209585     -1.69101985923609
  O   6.09619589795515      1.95860242574095     -2.70796745049074
  C   4.09689303598622      1.42742592645164     -1.51802830889179
  C   3.61979640179659      0.50044891938763     -0.66803542454444
  N   2.46261745536375      0.50997053894187      0.06410226938781
  C   2.73298906301117     -0.05295827899975      1.41193933066587
  N   2.50662113737444     -1.28956928519788      1.62321557211170
  N   3.12664584122888      0.83993649875520      2.33773698149122
  C   4.19224075330914      1.62669761026542      2.40752608688296
  H   3.49811074919258      2.26194947742863     -1.86620247613983
  H   4.22778408952940     -0.36464848821181     -0.44282719152077
  H   2.06992446198173      1.44197090039099      0.13837586475040
  H   2.07834896521340     -1.68621847050373      0.79046449606058
  H   4.13635080594517      2.36105671314992      3.20689484224641
