26
Coordinates from ORCA-job 16775optt
  Br  2.12466096853421     -2.81312274351126     -0.97273577061665
  C   3.59374088434011     -1.58753467286361     -0.51750584273833
  C   3.70317259845025     -0.62267972787818     -1.43044761557652
  O   4.75298236876750      0.32280743497076     -1.38472957576138
  C   5.93161182749489     -0.06943544565307     -0.86224727145008
  C   6.92839231029928      0.78600981312601     -0.65812594503897
  C   5.63688715890441     -1.32043640737916     -6.24503913697817
  C   4.45898323077258     -0.88830242778181     -6.50846815016925
  N   5.28636859221542     -0.95916517102973     -7.69774447050498
  C   3.54957390750477     -0.63870983824296     -3.85349921176787
  C   2.65712300742070     -0.25814411506647     -4.99704489936864
  N   3.22147306895996     -0.43547252579231     -6.26116808343906
  N   1.47254428771940      0.17854294316200     -4.94288826540780
  C   0.86175314548081      0.35634007161977     -3.65896424259037
  O   -0.30397442874169      0.75031618133549     -3.60451478825847
  C   1.65159728244627      0.08721909766576     -2.51748631820010
  N   2.93624608063573     -0.31215124031928     -2.58828272372700
  H   6.52930547149399     -1.37986035266411     -5.65762556294604
  H   5.98872457342416     -1.12699847414026     -0.62956638585019
  H   7.86815133702563      0.42187424461155     -0.27134653237037
  H   6.81764116202398      1.84230714542861     -0.86300898515193
  H   5.07244503028694     -1.82789255636212     -8.19259724656902
  H   4.51162686186960     -0.12239657904641     -3.94223463172620
  H   3.75742928645349     -1.71750937489986     -3.90056666290093
  H   2.62337417198977     -0.20003180477106     -7.03999537146027
  H   1.24016581422774      0.21942652548172     -1.52916630943130
