23
Coordinates from ORCA-job 16778optt
  Br  2.60637142004395      0.79036873782418     -0.90524420921349
  C   4.14275870893233     -0.04226381663163     -0.18240219793606
  C   5.27621707531773      0.72368705138047      0.07955496473973
  O   6.33234274458273      0.08718301592696      0.67723853690279
  C   6.47545244441508     -1.26279451307149      0.74604243029994
  C   5.32930099145080     -2.04863422486488      0.48505811824097
  C   4.15742011373059     -1.42995326239094      0.04407999793166
  C   3.00757482581501     -2.23503267245799     -0.20958210392786
  C   2.05368786703862     -2.93741917903985     -0.41386137510456
  C   7.73436786833597     -1.68065660103869      1.07564665317475
  S   9.00174404300746     -0.48604203879124      1.27707731710300
  C   8.81885816346110      0.15617366782848     -0.39313415365357
  N   8.36500074326544      1.26609191079638     -0.75445985685302
  C   8.04382453686264      2.35089323970700      0.10023789948694
  O   8.94635037249854      2.98521436280188      0.62485909295400
  C   6.65676379046731      2.80142966557985      0.09816189656618
  C   5.48191796586668      2.10054145803235     -0.08551846019405
  H   5.37882059876150     -3.12045216117527      0.59667717435239
  H   1.20305134056638     -3.54592565888250     -0.59923725362684
  H   7.95450744551921     -2.73174148727393      1.18002692077596
  H   9.03818712325257     -0.59474205416002     -1.15270110625029
  H   6.58067914389481      3.87393860222715      0.23438510750904
  H   4.58580067291347      2.67813595767371     -0.27490539327760
