25
Coordinates from ORCA-job 16786optt
  Br  3.31468808320231      1.27046524155349      3.75677142486904
  C   4.28033826077532     -0.09709486931853      2.82725357920011
  C   3.74752680183956     -0.59459562767270      1.55602734353105
  O   4.68421275101350     -0.91275209495740      0.60488274125856
  C   5.86138183565615     -1.41010268165078      1.26159486807115
  C   5.48430523833416     -2.15525187647953      2.53716440917472
  C   4.72943302649264     -1.23961105168761      3.48678156945855
  C   4.21492708215588     -1.68270132023073      4.71978536723109
  C   3.79364395301801     -3.03135546476397      4.76466691685109
  O   4.25689069295667     -4.05785373244630      4.34262773946842
  S   1.95603454783064     -3.15205046687903      5.48749044003506
  C   1.04436054155129     -3.48421959847249      4.03892241678335
  C   1.08260638011676     -2.78875372149187      2.84657398472469
  C   1.84400156505879     -1.60896662055354      2.63856980984940
  C   2.53104937903058     -1.26464122058872      1.47354078028395
  C   0.41174369512453     -3.39557747160928      1.72732700532062
  N   -0.12961284886337     -3.87704117584171      0.83397333817528
  H   6.35053355544662     -2.06288548227609      0.53995330979886
  H   6.51940059080079     -0.57028498942297      1.50097840286548
  H   6.38164297741419     -2.53307399755530      3.02944433459186
  H   4.86765178224689     -3.02989951682214      2.30858514092854
  H   3.58860476100749     -0.98284385656361      5.25009575190840
  H   0.42409857202445     -4.37032276991959      4.08397650456799
  H   2.10958274952148     -1.11031340792702      3.55647813378414
  H   2.30895402624462     -1.77127222642252      0.53953468726856
