25
Coordinates from ORCA-job 16785optt
  Br  6.15575614824130     -0.53953614992322      3.54469595557388
  C   4.48083883931293     -1.07054012710055      2.83694580149478
  C   3.33103312552817     -1.03089651105045      3.60071925376330
  O   2.15103835190088     -1.36385518689056      2.99175727005858
  C   2.11958402419081     -2.18880486540602      1.87198896888735
  C   3.29439877439828     -2.32038544421983      1.15030218005956
  C   4.46237667161151     -1.69729555141577      1.59272431537133
  C   0.88161791670053     -2.83194165766440      1.71840380451756
  C   0.93648130423807     -4.26682460221192      1.81468632996832
  O   1.68117812728673     -5.04681590525652      1.26526366584538
  N   0.09562479533774     -4.76705879102492      2.94865739777653
  C   0.91474718637352     -4.57855972749803      4.11789924130273
  C   1.07781982620008     -3.38338734177718      4.69676904335839
  C   1.98580634547378     -3.05489999467150      5.78660895897235
  C   2.76542318607291     -1.96444217323586      5.92769608315929
  C   3.27531443788063     -0.86288463669088      5.05401329008474
  O   3.85773827607321      0.07427201537630      5.60383757510585
  H   3.27009184713413     -2.90733781972161      0.24561651398429
  H   5.37541115516558     -1.76024264956512      1.01756992548508
  H   0.10831111718819     -2.36726420075308      2.31297539471941
  H   -0.68403455725748     -4.12247118654725      3.02976223378713
  H   1.50469853464965     -5.44157702590397      4.40780129025711
  H   0.54626211381918     -2.54253037684871      4.27291253601444
  H   2.03508069200302     -3.76935232089539      6.60456259489198
  H   3.29340176047657     -1.88336776910350      6.87383037556055
