23
Coordinates from ORCA-job 16791optt
  Br  3.08993415749123     -1.82239895231924      1.73676493340128
  C   4.37309619474467     -0.88075653504512      0.71114174400096
  C   5.62958078353739     -1.44720352911467      0.47609406292467
  O   6.39027602630170     -0.72098557628762     -0.40646165673968
  C   6.37281129488350      0.62731145620539     -0.49657966669873
  C   5.09919341139166      1.22052868016002     -0.26434195067930
  C   4.11772674064783      0.43602373637624      0.30419653169008
  C   7.57101520315593      1.22702140329706     -0.80697763384370
  N   8.69577018068109      0.48198831803451     -0.76811630792386
  C   9.88886423286626      0.24293549018368     -0.61226368376552
  O   10.39281715980761     -1.03150750642512     -0.26300221956625
  C   9.47127725174110     -1.95906888868889      0.13169515756231
  N   8.38883804182677     -1.63620568446335      0.78497294878223
  C   7.62816382819538     -2.76225013816900      0.74379414939602
  C   6.21976411376966     -2.63493614305545      0.90098588142427
  N   8.28344639369494     -3.85557799282175      0.22071625499722
  C   9.43991447314731     -3.35054585250538     -0.19668981525550
  H   4.94096167232928      2.27171181650982     -0.45794020500318
  H   3.14631093955853      0.86257700894083      0.52156752643319
  H   7.58169588037844      2.29779181032953     -1.00869408741195
  H   10.75718511905058      0.90576024206710     -0.68524890282318
  H   5.59594835066851     -3.46250283999099      1.20934641436903
  H   10.18940855013050     -3.93471032321756     -0.71095947527043
