24
Coordinates from ORCA-job 16793optt
  Br  0.86669240395588      0.24465052857891      1.15592781619020
  C   2.73002981524422      0.65125364937894      1.09832533768119
  C   3.23551248630096      1.39504623975467     -0.00412180172597
  O   4.59650398103839      1.35262610914558     -0.24197180873581
  C   5.32708316187939      0.52269379607840      0.64178803275901
  C   4.95215540049785      0.82183053322961      2.07865558170201
  C   3.47557474878367      0.55210096662506      2.27922831149494
  C   2.95789117673165      0.38512172041092      3.54986586006460
  S   3.81006317931918      1.01865594721844      4.92039380608572
  C   3.88701732804846      2.77986315878507      4.72471016984685
  N   3.55938953960265      3.59825178508905      3.81683199589000
  C   2.89338879046500      3.32866417657325      2.62503855179374
  C   3.39061187782830      3.70660332913655      1.44000338864305
  S   2.71478526169556      3.10076145263721     -0.07254747301547
  O   3.39597090221176      3.78332016484268     -1.14586367145529
  O   1.27654893569901      3.15159709871084     -0.00508951058130
  H   6.37764137454336      0.73084591813579      0.43970594054011
  H   5.11889416386873     -0.52939127712237      0.41403564375638
  H   5.19400979568357      1.86467012883867      2.30645392396424
  H   5.52915953361933      0.19833757059198      2.76481977822657
  H   1.89792270802658      0.23553194845189      3.69008924477835
  H   4.37550207306772      3.19822407560885      5.60941506088452
  H   1.92563488866050      2.83507267589437      2.67990120767421
  H   4.36101647322821      4.17666830340560      1.34540461353812
