25
Coordinates from ORCA-job 16801optt
  Br  3.03667940366577      0.01693282838738     -0.38075344802913
  C   4.56272680309459      1.13803782069902     -0.22494033344713
  C   4.31773405151702      2.53909851748121     -0.05350416574881
  O   5.38704581754417      3.38304288352950      0.01107283713945
  C   6.59010309639604      2.86784690191314     -0.53135627008339
  C   6.94080244894584      1.55343972934196      0.12789863730401
  C   5.77850429966867      0.59759125753651      0.06749996668041
  N   6.04866741115432     -0.69721426739592      0.48391039773719
  C   6.18851213590219     -0.83343297372927      1.78023783010918
  N   5.93022048291729      0.06607187216232      2.74198124963757
  C   4.88794525450431      0.88157136845942      2.55390122976677
  C   4.77344372282954      2.23472492336198      2.74406372162093
  N   3.61624459159785      2.90281499475111      2.24152288209915
  C   3.25297667198955      2.99023137513746      0.90447500420506
  N   2.13587240358437      3.43081550509748      0.47525780706100
  C   5.85445672373831      3.03773297724035      3.20033220662000
  N   6.70835120867761      3.70979102941666      3.58914588646987
  H   7.34638232799878      3.63009394820452     -0.35199262177901
  H   6.46110056483731      2.73110378162030     -1.61144393717255
  H   7.21981715847568      1.70438060201793      1.17675288431024
  H   7.79272439631815      1.08966098578286     -0.37686822720683
  H   6.63250339760569     -1.77406055072911      2.10792349442028
  H   3.97355640133376      0.42933609787688      2.15997373596869
  H   2.96972829657623      3.32021128288973      2.89511908756884
  H   1.52090092912689      3.66617710894653      1.25679014474820
