24
Coordinates from ORCA-job 16806optt
  Br  4.35588063317156      1.60322733574113      1.59917560743898
  C   5.07813691240904      0.03076717292474      0.84301308684544
  C   6.40979245880534     -0.19003610895737      0.84028547311842
  O   6.89641231907988     -1.32938704900218      0.32977024270451
  C   6.15642114187282     -2.14133806062066     -0.48844435276171
  C   4.79792821936744     -1.98735611697750     -0.49338412318776
  C   4.14329527844112     -0.92709723108685      0.22801155652004
  N   2.86999318403991     -0.73008066206742      0.32756697268604
  N   6.87800561466913     -3.07583438421697     -1.12467586720950
  C   8.16503432918711     -2.80187134788315     -1.36522653537372
  C   8.69873921605703     -1.49307093789570     -1.58787838423804
  O   8.03435683165615     -0.50529952294782     -1.93381515599487
  C   10.14124469378375     -1.23237826391386     -1.20792555171640
  C   10.38029116383110     -0.73145221301827     -0.00561310665935
  O   9.35876932162010     -0.67531580031727      0.92857342917083
  C   8.77771714809187      0.52190455540380      1.18992515877126
  C   7.45931716625553      0.72893234599903      1.26621116449663
  H   4.20924101672488     -2.65332274018645     -1.10796556508273
  H   2.38243693884631     -1.47512772692206     -0.16716921123725
  H   8.85081738959657     -3.64359117140895     -1.43831967736622
  H   10.95761979275339     -1.34095189591539     -1.91320989581939
  H   11.34861382440318     -0.39200060542735      0.35223079536654
  H   9.47265915989103      1.33490422623923      1.39179801772509
  H   7.14027624544555      1.70977620245731      1.58406592180317
