22
Coordinates from ORCA-job 16815optt
  Br  1.56526791903076      0.59173639010008     -0.23675880830784
  C   3.39565156496783      0.27290592737432     -0.11769451649125
  C   3.98641510044241     -0.97654905581445     -0.07866138625798
  O   3.27992932783676     -2.13857089691340     -0.11622183722668
  C   4.19384804395390     -3.16028294857815     -0.05141902887157
  C   5.45941593385637     -2.68952985032141      0.02459743938826
  C   5.38262110740147     -1.26113321485158      0.00935810336271
  C   6.27179505808225     -0.15958336792919      0.06344487951127
  C   7.65468694642906      0.20872319812346      0.14215223728605
  N   8.76712255825037     -0.45793867531795      0.20211065184741
  C   7.72195495349585      1.76784805687813      0.14310071224541
  N   8.79652837056623      2.43722375391833      0.19868978685887
  C   6.32328470513333      2.23759539952267      0.06236733007664
  C   5.59252237335331      1.07342253174604      0.02241274963957
  N   4.29037023758424      1.34180023804768     -0.06052418513737
  N   4.08410884104253      2.69025618028508     -0.07984083521297
  C   5.31711571524187      3.21904633251636     -0.00529916541988
  H   3.77985114617353     -4.15254162065696     -0.07236066354738
  H   6.35060723025497     -3.29231005799223      0.08270472548130
  H   8.57860750766085     -1.45828219031630      0.19037488241931
  H   9.56581279647681      1.76061855839830      0.24146902115734
  H   5.40248256276526      4.29454531178119     -0.00500209280121
