28
Coordinates from ORCA-job 16818optt
  Br  1.14506676231957     -0.28919341482140      0.42802750476292
  C   3.04455011371510     -0.20836670082629      0.17722858908141
  C   3.73469671800608     -1.36850935557769      0.00306346587122
  O   3.22416667668215     -2.64052000332141      0.10243544150683
  C   4.27214957850806     -3.54255603449907     -0.26325279822892
  C   5.59673917113990     -2.80567422643003     -0.02106551192082
  C   5.13653327967221     -1.40004881877105     -0.24917818643023
  C   5.72047159616559     -0.12970528794845     -0.13674803257370
  O   7.06751053141633      0.14771122724265     -0.28108405664440
  C   7.22602731436672      1.51493223442703      0.10274845847647
  C   5.84974982355649      2.19637463171352     -0.01014835860730
  C   5.56349680201173      3.18132163887344      1.11371988115401
  C   6.55749488537950      4.34720319921073      1.18657722217301
  C   6.50924546063445      5.24384914744968      0.03078170109422
  N   6.47966454931599      5.97688272860264     -0.85066202439292
  C   4.95352686765314      0.98968746633132      0.03834736521665
  N   3.59810401703388      1.03606936423225      0.16200129213143
  H   4.16502652073560     -3.79067482340343     -1.32456703608699
  H   4.15036195301971     -4.44723008997053      0.33320673496763
  H   6.37531056556958     -3.15353542521883     -0.70172881841078
  H   5.95105034646759     -2.98017739808145      1.00956805776973
  H   7.99631849085954      1.95528933885065     -0.53224615728134
  H   7.56447259673734      1.54004999451488      1.14862957105654
  H   5.74839003563456      2.72401003494928     -0.97076242071784
  H   5.61055720775990      2.64330199793598      2.06428673355512
  H   4.54432181675997      3.55489518224834      1.00675348482257
  H   7.58047863395678      3.97059908355665      1.26843075652489
  H   6.36851768492235      4.95901430873056      2.07063714113058
