28
Coordinates from ORCA-job 16812optt
  Br  0.41481245887463      1.08362583469905      1.08298960168222
  C   2.50814335090060      0.46044518493257     -0.38937056543490
  C   3.31065414632042     -0.65392061540898     -0.20609636902599
  O   2.84859031172760     -1.87540417191540      0.24432366249553
  C   3.95195744792830     -2.77106947446090      0.24999946629807
  C   5.22312479567815     -1.91277510372031      0.34277683368228
  C   4.71580344424390     -0.62947804771129     -0.25761472443488
  C   5.34551015240947      0.52873797720290     -0.68538484231376
  C   6.68385780956995      1.21167763978975     -0.36870872799280
  C   6.11924295555235      2.62273566132446     -0.21306538899604
  N   6.07257196866590      3.40125222695528      0.77953025746856
  C   4.88562778289189      4.26629245470123      0.58954521416191
  C   4.19052132969293      3.81787648112671     -0.73658087073287
  C   2.80047630188074      3.09593024728641     -0.67909760105269
  C   3.14574609392872      1.61828498326256     -0.80646715561061
  C   4.49064975283498      1.53909308008486     -1.09364980939626
  N   5.14263678678812      2.79886520605920     -1.22810672617808
  H   3.95049007405247     -3.33664578851857     -0.68986560647933
  H   3.82371855658156     -3.46340057523011      1.08091874974070
  H   6.05675336105138     -2.35903384231735     -0.19975472561028
  H   5.53267860825683     -1.76290392896070      1.38240109936957
  H   7.40960829892866      1.15839755773279     -1.18402832710601
  H   7.14028610497728      0.86042204244514      0.55422133357291
  H   5.18358412066657      5.31551161038237      0.54994301359640
  H   4.24061012644105      4.13823468952401      1.46169286181540
  H   4.15153113610297      4.65356850537402     -1.43340309854164
  H   2.15525312272827      3.45039805534037     -1.48527239990373
  H   2.26455960032399      3.26128211001986      0.25712484492632
