22
Coordinates from ORCA-job 16811optt
  Br  1.50338807583656     -1.68522794941061     -0.66432258976605
  C   3.05238243081950     -0.96428548644100      0.15381011902025
  C   3.35424881012176      0.40947347926009      0.07362443371931
  O   2.47084780898959      1.35185755617611     -0.36095802613453
  C   3.17582248586712      2.50784828024997     -0.51960269282007
  C   4.47617238573679      2.34699298147075     -0.19240586631135
  C   4.63581494732577      0.98496136818808      0.23113855559665
  C   5.71117736837202      0.12516612050340      0.60569144690775
  C   7.08402761766512     -0.07031949118966      0.17359685871389
  C   7.39018873073753     -1.45251523208637      0.30633614419397
  N   7.92490687806502     -2.42499276673156     -0.58019933342515
  C   7.02225120532110     -3.39966661992279     -0.62283774800452
  C   5.90196300766822     -3.17461331847193      0.30122475750357
  C   6.30557020960361     -2.04008026132859      0.97645438531650
  C   5.24916191579177     -1.12747273482177      1.08064490908660
  C   4.10953408219333     -1.76870944698172      0.57495901420947
  N   4.48223458390391     -3.08490567231976      0.23854553890963
  H   2.60620150702171      3.35663906262397     -0.85662330385881
  H   5.23556981886615      3.11074771581313     -0.22342802891637
  H   7.65446274693033      0.65986467656466     -0.38446789147093
  H   7.18438855506934     -4.26169756856311     -1.25875652280458
  H   3.87668482809368     -3.69306469258128     -0.28442415966523
