26
Coordinates from ORCA-job 16829optt
  Br  1.05604750445327      0.27472726117742      0.33665635196334
  C   2.93694522833089      0.10064441101937      0.15078044287272
  C   3.66073386558174      1.27081494060903      0.13640473779944
  O   3.10660676759246      2.52199454296767      0.19337858628015
  C   4.15346290585550      3.45203208655495     -0.10186211079446
  C   5.47846764036282      2.74968469358875      0.22709454320506
  C   5.05208806960022      1.31267827437391      0.11366931309944
  C   5.74752277351407      0.10439948944275      0.10851446901501
  C   5.05457962838153     -1.08378395202231      0.11072459585966
  C   3.62655753619696     -1.15849416470587      0.13310471062452
  C   3.02028667087301     -2.43498269381534      0.10645109188559
  C   3.49444123450511     -3.73984918251065      0.40294857920377
  C   4.65774108582659     -4.19269476873417      1.08365599260224
  O   4.93297958833044     -5.38623331712685      1.28863715727068
  C   2.43256419697228     -4.63262519788890      0.00641706934255
  C   1.42275721762015     -3.87033202763082     -0.43763968993917
  O   1.73427578914354     -2.54736220233097     -0.38768715964324
  H   3.96710374695777      4.35391359109781      0.47923024848558
  H   4.10353728796371      3.69393251234190     -1.16840343333429
  H   5.82048356346202      2.99862817561590      1.23901577957202
  H   6.26729306975072      3.03984092051087     -0.46985208134565
  H   6.83138514646337      0.09020134924534      0.07426150284903
  H   5.60030585012939     -2.01187611577565      0.02572789613388
  H   5.33183629146396     -3.41534289233262      1.47992030350887
  H   2.46115237079199     -5.70511714306031      0.09870463252771
  H   0.43684496987645     -4.09979859061120     -0.80585352904445
