25
Coordinates from ORCA-job 16826optt
  Br  1.14864395858014      0.12491204727439     -0.10362528293465
  C   3.03742015203105      0.04766189379515     -0.03117577993073
  C   3.72906929222662     -1.15181321376236     -0.01044374542397
  O   3.14436685137858     -2.38966246617035     -0.06013348287392
  C   4.17275894976119     -3.32815597116248      0.28242765740302
  C   5.51174457433188     -2.65209216035172     -0.04034885836182
  C   5.11570142749947     -1.19789833180378      0.03389858980599
  C   5.87984582835516     -0.03544390530659      0.06154502492900
  C   5.21222837589864      1.18748842097889      0.05624514326881
  C   3.79199106084767      1.21579955608657      0.00785981858439
  N   3.38206874359077      2.51029163821200      0.02187224272615
  C   4.49084793535500      3.38024367591791      0.07947376621686
  C   4.33679805473822      4.74811462364765      0.12027849736087
  C   4.20288258227688      5.96648844269219      0.04361308433601
  C   5.66177879704931      2.55756412913528      0.09940017421251
  C   7.00499558346889      2.98472128043777      0.15322477477233
  O   8.00028229369259      2.23928845905176      0.16601259960568
  H   3.98345635475069     -4.24372283620781     -0.27506630177385
  H   4.09768060550306     -3.53471758623987      1.35471661365278
  H   5.86528379076365     -2.91697787168377     -1.04193785698577
  H   6.28664056035713     -2.93125280090833      0.67392170299537
  H   6.96093927119013     -0.04910415436172      0.09082806801179
  H   2.42419774139193      2.81064011721209     -0.01112328866870
  H   4.08656082095596      6.94961052498665      0.44225894947011
  H   7.14281639400516      4.08201648853044      0.18627788960175
