25
Coordinates from ORCA-job 16824optt
  Br  1.03722444570992      0.14948080302156     -0.32824456147725
  C   2.93572215784572      0.11870636448232     -0.21496181844755
  C   3.59819487474884      1.30819380912353     -0.21808690088879
  O   3.03827295609378      2.55770663389556     -0.30021814729834
  C   4.05433061928994      3.48536591700796      0.09167520295381
  C   5.39880003104888      2.82036729496726     -0.23235418674151
  C   5.01604659279858      1.36435410842706     -0.14839230647248
  C   5.74371852131165      0.22179272474705     -0.06788937799375
  C   5.08828321357603     -1.04031008897157     -0.05174144602119
  C   3.64664956541834     -1.10473028199596     -0.13382431938192
  C   3.04813921830419     -2.38594611121740     -0.10854012812527
  C   3.80414659638516     -3.50761236623302     -0.01397595751803
  N   5.19996019497581     -3.46488577183907      0.05782068700100
  C   5.90864331911497     -4.63207441201581      0.14460858605852
  O   5.38667087847524     -5.74424078587894      0.16270080949680
  C   5.90120840030623     -2.20531752249391      0.04270080637368
  O   7.13492582209186     -2.22226948174182      0.11003348290987
  H   3.96487432326801      3.66126228189108      1.16882237237796
  H   3.87432418681330      4.41760182208603     -0.44083601024937
  H   6.17966189932072      3.11083053777521      0.46999644798192
  H   5.73028056084237      3.08297489212844     -1.24117653768044
  H   6.82547825444545      0.22779833290822     -0.01662147399427
  H   1.97376543582825     -2.48739946549369     -0.15972155507671
  H   3.40028074387689     -4.50725498096972      0.01404809055308
  H   6.98439718810978     -4.45839425361033      0.19617824166024
