22
Coordinates from ORCA-job 16833optt
  Br  1.11602367385797      0.07015093360017     -0.04563336081505
  C   2.99648193840173     -0.05095232739260     -0.04534169284058
  C   3.75875179951988      1.10992248453478     -0.04537165393047
  O   3.28883366289475      2.37789174349320     -0.04544614987783
  C   4.38724443322237      3.19990427200043     -0.04538803508800
  C   5.53445537649440      2.48181171435377     -0.04530214886753
  C   5.14647363070440      1.10416172502067     -0.04528001363641
  C   5.84665574793138     -0.11619174486161     -0.04516817051040
  C   7.23597916423316     -0.19267579369156     -0.04505223169496
  C   8.44775370983634     -0.15276562465898     -0.04500878258982
  N   5.05640658067103     -1.30311911418536     -0.04510447566544
  N   5.76412115624975     -2.43598607806959     -0.04504544521714
  C   5.15629756117368     -3.57186891390215     -0.04490814219695
  C   3.70558581107407     -3.76181710287804     -0.04464873820803
  O   3.21202539046592     -4.90053648158114     -0.04466978625061
  C   3.00411102964740     -2.53391901143716     -0.04494638557263
  C   3.65685588073026     -1.30430361244395     -0.04514384498153
  H   4.17725271905836      4.25445631872261     -0.04544143624386
  H   6.53939469689456      2.86923191641606     -0.04525782127902
  H   9.50936258135241     -0.14627658957052     -0.04497080067902
  H   5.79302223777955     -4.44988311352380     -0.04491841738360
  H   1.92491121780660     -2.54723559994525     -0.04495246647110
