27
Coordinates from ORCA-job 16835optt
  Br  0.65325227989701      0.41305689924461     -1.31876799815773
  C   2.94419375876719     -0.44561533069265     -0.50830876160099
  C   3.70899755018727     -1.55072470475568     -0.38825493103090
  O   3.42529657729613     -2.83227710561110     -0.83243941704844
  C   4.66397828333343     -3.53128741924914     -0.83902379647753
  C   5.53770647734239     -2.88161969851587      0.24675227528555
  C   4.95961992008038     -1.49008039485958      0.27204682446608
  C   5.42958262588758     -0.33550607867601      0.80545071504603
  C   4.63975554217155      0.86103058860540      0.70144290832661
  N   3.43762004953855      0.70163851199731      0.04003014175779
  N   5.05283351826340      1.99467252053540      1.19667539016538
  C   4.21241351319563      3.14380838872627      1.03806070840704
  C   4.81626948583218      4.36778651229415      1.70472944688353
  O   4.33436102802981      5.47372804894741      1.62905431111386
  N   5.96659876905111      4.09149910420199      2.42344031126460
  C   6.66233460344256      5.03067751155691      3.13193171423194
  O   7.65988529258371      4.79205224500291      3.76795813089200
  H   5.13622769293698     -3.41205514703872     -1.82122912324031
  H   4.45813355958336     -4.58628547476086     -0.66641829574792
  H   6.60011733866614     -2.90801609279632      0.00757876543446
  H   5.38938648621632     -3.36241509339113      1.21704820830789
  H   6.38207403998308     -0.26017327419220      1.31080572762315
  H   2.82510346279317      1.50133305933079     -0.06827496281380
  H   3.21219569969375      3.03279444369302      1.49024893598253
  H   4.03334359381506      3.43156088987661     -0.00972848928206
  H   6.26702671454730      3.11810189251632      2.37512979432287
  H   6.21269213686459      6.02931519801010      3.05906146588831
