25
Coordinates from ORCA-job 16836optt
  Br  1.03170122457869      0.47395140533447     -0.33581529867076
  C   2.93665072143823      0.47696386861916     -0.18598707716103
  C   3.59959304095293      1.63704943962611      0.06275361147415
  O   3.02291399545086      2.88438886563127      0.26747696395609
  C   4.05256297524884      3.83613958468843      0.18396123659868
  C   5.39452667283608      3.09850721709564      0.42234188954934
  C   4.99436734048962      1.70629559820878      0.09624078932005
  C   5.68972588232025      0.47568988807602     -0.11434351224316
  C   4.92750660185431     -0.64908552147713     -0.34062109367246
  N   3.57778768493223     -0.71316155531792     -0.37963275316441
  O   3.99891871256572      4.51686704982776     -1.04875021871274
  C   4.13204868357774      3.69363532553771     -2.19262276865768
  C   3.81300251062179      4.61410576391952     -3.36599311419803
  C   4.01169680015682      3.96153630564588     -4.65656450978555
  N   4.17609564024334      3.45712217467081     -5.67231282715782
  C   3.80123436059479      4.89545311093732      1.19386363862160
  N   3.66184383695515      5.70651540156858      1.99010489232576
  H   5.73165954082190      3.26114753839091      1.45953660103688
  H   6.15965277919133      3.54360614019898     -0.22775224518651
  H   6.77004310254650      0.40949674571329     -0.10821478431604
  H   5.43056946345342     -1.59791884629674     -0.50730623134379
  H   3.43069500226832      2.85695022576907     -2.15805725447226
  H   5.14574481902952      3.29238673352675     -2.27550166876264
  H   4.45280906251832      5.49683107418879     -3.32136656504978
  H   2.77764954535322      4.94952646591650     -3.29443770032785
