21
Coordinates from ORCA-job 16839optt
  Br  1.24175782766043     -0.03654208047264     -0.27585236707968
  C   3.09500199015187      0.06046307279794     -0.10601311934258
  C   3.82983851766664      1.19317053494133     -0.01261278938337
  O   3.36680560413336      2.45821890897701      0.01043197642251
  C   4.48450514619914      3.30535754128912      0.11898868047831
  C   5.63485149328564      2.52876868464303      0.16214960103898
  C   5.24684219926323      1.17993683736923      0.07828180875659
  C   5.85659845477619     -0.10750453636852      0.05419256653264
  C   5.08344564985943     -1.20493097939641     -0.03889640114879
  O   3.70950418388260     -1.18352516027586     -0.11357626116311
  N   4.36861474641864      4.62017214463577      0.16635062439201
  C   3.21749911673946      5.28171744769666      0.12172871589112
  N   1.98364881072038      4.87061201178756      0.02094879375939
  N   1.12705843785112      5.94813010365377      0.01567880077576
  C   1.58761049815184      7.21421688256041      0.10579342177887
  O   0.92453205310826      8.23572970445144      0.11077676909505
  S   3.35431327306772      7.06563145167504      0.21345394798275
  H   6.62618317583456      2.94005455210062      0.24410347116872
  H   6.92884637198914     -0.23985200148541      0.10766290403616
  H   5.45332187624980     -2.21801917553444     -0.06555903262255
  H   0.14122057299052      5.76219405495433     -0.05903211136878
