19
Coordinates from ORCA-job 16846optt
  Br  0.94997259645334      0.54905468338873      0.08417598746748
  C   2.80176263585335      0.14982082341420      0.00965083601040
  C   3.72817232877233      1.19732852049682      0.14466321144111
  O   3.34115894989904      2.48886225505962      0.32548318029300
  C   4.47497788210733      3.24382535998359      0.39448423271761
  C   5.57941436795413      2.47764169260516      0.26939587943484
  C   5.12312360276403      1.12094558062456      0.11117979491261
  C   5.82296767085150     -0.08127971864178     -0.03174456216040
  N   7.20852258364162     -0.10822119387213     -0.29911721919572
  C   8.13683708343473     -0.59697403994535      0.57524734459584
  N   9.37715363664930     -0.81674679727913      0.37738432784336
  S   4.95224750428593     -1.58424153213751     -0.28589538462300
  C   3.15499162501534     -1.19352758980652     -0.19622523981406
  O   2.43459551608359     -2.16927477355174     -0.33669477352167
  H   4.32446980801734      4.29967044434744      0.53567635823173
  H   6.60275190482928      2.81357389003966      0.29523738406556
  H   7.52144158462901      0.01883416887958     -1.25715859247176
  H   7.71060550374626     -0.79016210953479      1.55916818980283
  H   9.63283321501240     -0.60212966407042     -0.58791095502975
