23
Coordinates from ORCA-job 16842optt
  Br  1.41703151027288      0.11073102321009     -0.30710451325014
  C   3.28797664619077      0.11175658051771     -0.10918404562175
  C   3.96145047274848     -1.05505683334385     -0.03888950317177
  O   3.45616196762303     -2.31489142237648     -0.08590145698508
  C   4.53975356090605     -3.16884419485788      0.02003349385823
  C   5.70231953976488     -2.51151203031500      0.13248608131993
  C   5.37400332621638     -1.10505744210425      0.09935351079032
  C   6.06799617549718      0.06401466335666      0.19215616909212
  N   5.42180430942619      1.25803582114957      0.14213113358480
  C   6.15753172136491      2.48367056611614      0.28739116433965
  C   7.53399472975665      2.48076218123841      0.67453575849420
  O   8.29447242108598      1.52073282408917      0.92788894973986
  N   5.59492713974272      3.66966148416706      0.08770734021316
  C   4.25843141563865      3.79599825384096     -0.19204167836838
  N   3.69433311727071      4.93754107690290     -0.42647337166051
  C   3.45633114481395      2.58628543908158     -0.20833423087639
  C   4.01785232262887      1.36456920054636     -0.06367153667708
  H   4.29516855884792     -4.21634905653616     -0.00203743129784
  H   6.67884170911515     -2.95468503347126      0.23216502506596
  H   7.13613050745982      0.13420299756895      0.33936349959132
  H   7.90304546926127      3.51391246062178      0.74344517289912
  H   4.41996105837010      5.65120187552108     -0.36577587608671
  H   2.39448117599739      2.68031956507643     -0.36524365499302
