25
Coordinates from ORCA-job 16848optt
  Br  1.19655631227477     -0.14237382222157     -0.13292790224768
  C   3.07394367728196     -0.13255487810276     -0.27574599193947
  C   3.80402607456049     -1.30786408118907     -0.33256933251295
  O   3.25295295683206     -2.55602381581852     -0.17842485095349
  C   4.30371702676103     -3.50418197234788     -0.39266916753289
  C   5.63865361576092     -2.75050276551444     -0.17913447102531
  C   5.18137762242367     -1.34388186972069     -0.40439542157247
  C   5.86721956341403     -0.13233658257316     -0.28133134714129
  O   7.14877619606554     -0.02028586961362     -0.78824609995453
  C   7.90485552040653      0.96686778579828     -0.12715959840506
  C   9.30628182256553      0.87671809779575     -0.53933732665799
  C   10.46300105196858      0.81975292201735     -0.84671853647206
  O   5.14353034258659      1.03417941199887     -0.54802810928131
  C   3.76364236719835      1.11205296361506     -0.40141823311375
  N   3.21941002126290      2.27149254782262     -0.43404830018216
  C   4.20220710671738     -4.07640491547543     -1.74340310527180
  C   4.13922470505969     -4.57263273141056     -2.83234865934205
  H   4.15769127971509     -4.30482922869666      0.33346341740801
  H   6.40068801445661     -3.10088795199614     -0.87506925554112
  H   6.01105798616379     -2.90580651421591      0.84200150120785
  H   7.82828842028250      0.82371986156411      0.95822218400186
  H   7.52051586121413      1.96493021342598     -0.35732269418424
  H   11.48578932944281      0.76355411895492     -1.12951193166089
  H   3.95299509096895      2.97031756889623     -0.51900155059552
  H   4.07359803461586     -4.98901849299273     -3.80787521702967
