26
Coordinates from ORCA-job 16849optt
  Br  0.81460214991947     -0.12179287487682      1.46310001680447
  C   2.86831976375072     -0.11022011939140      0.05144563331744
  C   3.64586852566159     -1.22319316813702      0.10479536354967
  O   3.21242344241520     -2.53233528862753      0.21037546418117
  C   4.32193354499798     -3.34727131103059     -0.14674384763467
  C   5.58990837420377     -2.54027207681547      0.18539235533552
  C   5.04450128668925     -1.14326014820299      0.09325714402902
  C   5.66823321630128      0.06481599188406      0.06976992343476
  O   7.04902820202228      0.13825786511061      0.15340884626742
  C   7.69382179532341      0.88056570728961     -0.77910156588852
  N   8.94149509173432      1.03314484723740     -0.79275133870258
  C   4.90728471751224      1.28308293963302      0.03797129382114
  O   5.39439199764996      2.41637143658432      0.00987545912978
  N   3.52146173422584      1.08672913862774      0.01021893204421
  C   2.72898939054407      2.31226286018755     -0.11202498488160
  C   2.72075378626872      2.82873270057225     -1.48194159110090
  C   2.69704429436052      3.25125488358069     -2.60242284325030
  H   4.28224342733870     -3.55145926316094     -1.22326587210304
  H   4.24311384664132     -4.28604549994954      0.39874731734485
  H   6.41109181967317     -2.73266260643349     -0.50392767116732
  H   5.94337817819492     -2.73470490618909      1.20113788425810
  H   7.04732018504156      1.32552804616452     -1.52999676810947
  H   9.35633412520311      0.55275777213334      0.00694250409683
  H   3.15916474764890      3.06336500612118      0.54944536654171
  H   1.71807309863316      2.06800564202281      0.20922642218593
  H   2.68921925804437      3.62234242566578     -3.59793344350362
