26
Coordinates from ORCA-job 16840optt
  Br  1.37453760819458      0.12126441219495     -0.33993390634376
  C   3.22931940535479     -0.12409674699192     -0.15029499838181
  C   3.79626033972281     -1.38794822341531     -0.14563969990842
  O   3.07701121366176     -2.56099403970357     -0.13767568139048
  C   4.02291313258254     -3.61983225327140     -0.30255944177473
  C   5.39922372335343     -3.06381614102098      0.13861703475956
  C   5.15530347444194     -1.59544069094303     -0.02525860658450
  C   5.99953064181947     -0.50676445786134      0.12689262467681
  C   7.44667966026057     -0.52234313053696      0.22541417775549
  O   8.20777874552786     -0.43584651403359     -1.06353155799964
  C   8.23768311710030      0.76456845427518     -1.64468248108722
  N   8.86097983392244      1.03426420974773     -2.71126501107625
  O   5.45483073467640      0.77280649220630     -0.02113890584588
  C   4.08780736685878      1.01926445714933     -0.09544347961726
  N   3.69984320395601      2.23820308905492     -0.12683771155423
  C   4.04011841183097     -4.06655418445302     -1.70303648263517
  C   4.06534216589025     -4.45237620934606     -2.83695313739992
  H   3.68863178933799     -4.44724126331079      0.32427592807341
  H   6.19900389832264     -3.46297602422037     -0.48709271405794
  H   5.61056927629272     -3.33585967036955      1.18072653235889
  H   7.79454648804781     -1.47153122110079      0.62743238039534
  H   7.81923031021915      0.30360937591178      0.83811010855003
  H   7.67185063484191      1.54193280814293     -1.12961292818009
  H   9.31698665881695      0.18916514800722     -3.05881022537282
  H   4.51535357411781      2.84344203868287     -0.07572847998559
  H   4.08266459084793     -4.76689971479454     -3.85197333737381
