24
Coordinates from ORCA-job 16852optt
  Br  0.97156909954422     -0.16370153864005     -0.27533596426537
  C   2.85895758407287     -0.11751689399875     -0.16583145554368
  C   3.60044980495522     -1.26989341755087     -0.17795204006705
  O   3.13617596802810     -2.54889026283914     -0.28973949874592
  C   4.23425183572295     -3.41250640901341      0.05861500464087
  C   5.52209516180011     -2.61192383152808     -0.16949565582560
  C   4.99676332090278     -1.20016652778820     -0.08545325761853
  N   5.70397452728026     -0.09907439250986      0.00517856874655
  C   4.98540135884642      1.02248036628935     -0.00135824707409
  C   3.55838103031129      1.08697935111848     -0.07276051041740
  C   3.19944958178793      2.45739484184127     -0.00900423326822
  C   4.37099681065056      3.15852086760829      0.09194969438262
  N   5.45413442806042      2.31644531822182      0.09372350820039
  C   6.85526289265349      2.74051239783436      0.07282555182788
  O   7.69166541779147      1.97888197501652     -0.43164754033275
  C   7.15201841284201      4.02574084482864      0.62413302822642
  O   6.36694039016229      4.85210980021697      1.15168120248925
  H   4.15105007598804     -4.30978270868175     -0.55081315118579
  H   4.12696403023498     -3.68140930882953      1.11342723572246
  H   5.95066560324823     -2.79698307225251     -1.15768948659278
  H   6.28518600605373     -2.82063831424244      0.57831103261951
  H   2.20464296718512      2.86897175110253     -0.02681147328206
  H   4.54541608156768      4.21626924739034      0.18292600898034
  H   8.22758761030966      4.24817991640603      0.53012167838295
