28
Coordinates from ORCA-job 16857optt
  Br  1.10059022356558     -0.31556786868105      1.46482530386317
  C   3.56206302149845     -0.15358075280585      0.67085453114179
  C   4.11414592553254      1.09896901274964      0.55240375859660
  O   3.83539290707515      2.20203068898614      1.31616667485881
  C   4.38512219560666      3.32985656119418      0.62611638361372
  C   5.50732679237983      2.79872086004534     -0.27839079832379
  C   5.07995391220529      1.35958319984795     -0.41521837345716
  N   5.54112330756716      0.46532382990451     -1.27141695161036
  C   5.00209369802856     -0.75287826051366     -1.16885274144098
  C   4.02180101132892     -1.10341951161220     -0.23958483733992
  C   3.45727406247933     -2.49959125909879     -0.24015775482708
  N   3.98906293257635     -3.27590942920603      0.88522634675383
  C   3.63359987867490     -2.91299084112555      2.28172215837157
  C   3.67062060232121     -4.36476530140028      2.80291111005594
  S   3.56078523923507     -4.86205901464989      1.08862775795426
  O   2.19761437383217     -5.12390191479769      0.71082199000956
  O   4.55476419129899     -5.78625831438558      0.62276723165595
  H   4.71756739722632      4.04907095223375      1.37224456049036
  H   3.58924900893771      3.78033725953898      0.02449933051027
  H   6.48791176555136      2.86370204188173      0.20136999799723
  H   5.55882936914424      3.31846772326309     -1.23418571003337
  H   5.36807039665410     -1.49912556564545     -1.86900595331762
  H   3.74450822464628     -3.02426349723716     -1.15297426579949
  H   2.36609303970790     -2.44991852223333     -0.17440440616089
  H   2.64343740754441     -2.45892647553728      2.34819286806079
  H   4.37514491309839     -2.24955339100605      2.71955327107837
  H   2.82120828111804     -4.69173513149310      3.39371889531700
  H   4.62064592116467     -4.66761707821627      3.23416962198133
