24
Coordinates from ORCA-job 16859optt
  Br  2.95486943665364      1.31797573134808     -2.05605067130408
  C   3.79889758726081      0.52865941233915     -0.42233504349204
  C   3.69981648096512     -0.84665710374072     -0.27655452097743
  O   2.56334947596109     -1.61796230007929     -0.47262622778364
  C   3.02184894310589     -2.96263730238198     -0.49992085740102
  C   4.36392264768177     -2.99965627776214      0.26600052276948
  C   4.78792429311834     -1.55946272547608      0.13527574152182
  N   6.01362077899636     -1.07299105108896      0.36333095342453
  C   6.16812995978301      0.25242798720222      0.20370215881145
  O   7.17636083789887      0.90012318123083      0.33356396723416
  O   5.01109519956469      1.04633399273709     -0.13977001162873
  C   3.18693773512554     -3.38249659543769     -1.94957752569198
  N   3.05571857405167     -2.67680358169673     -2.97906405307294
  O   3.50140236393695     -4.69997438010511     -2.02457605858992
  C   3.69374680805206     -5.17731088253308     -3.34695487966802
  C   4.01778926857249     -6.59978112068865     -3.29599394226941
  C   4.28415408447129     -7.76674212273928     -3.29025418470233
  H   2.25816043351612     -3.59637977556486     -0.04819051268167
  H   5.07742876857615     -3.69269350017650     -0.17696550200563
  H   4.21912375336040     -3.27981600778579      1.31339409409483
  H   2.81981731924246     -1.71926641767204     -2.71550458971489
  H   4.49666055915442     -4.61672813262441     -3.83042636855491
  H   2.78989043589660     -5.00893883298651     -3.93618154602872
  H   4.52833425505408     -8.80122219431744     -3.27832094228886
