22
Coordinates from ORCA-job 16865optt
  Br  1.03107902541267     -0.79810075598822     -0.47248745809619
  C   2.84387081964916     -0.39423972634147     -0.07525264157394
  C   3.74434762494718     -1.44304777984018      0.08563398326231
  O   3.31317684184811     -2.75649057207916      0.23615131768582
  C   4.42344631064294     -3.56622436562896     -0.12569881754933
  C   5.68105529736438     -2.75787200933913      0.21714127060874
  C   5.13021179640525     -1.35611314958074      0.09503648265947
  N   5.87900719988054     -0.26920961683448      0.03735005837067
  S   5.06757360905500      1.19942957393754      0.01113765682109
  C   3.29010435369930      0.94797411286980     -0.19049911756270
  N   2.54286702892723      1.96949853496836     -0.41336386354983
  C   4.29963087957225     -3.83313893155861     -1.60538190628393
  N   5.09796407128795     -4.55454768271026     -2.30379314013869
  O   4.56419278492697     -4.54090074214152     -3.60346434758939
  C   3.43053226157733     -3.78796439471162     -3.63870469021996
  O   2.76761912980276     -3.59920568551129     -4.61727636843248
  N   3.26349607376691     -3.34980398091456     -2.34877053287081
  H   4.34501666492517     -4.51030428898213      0.41199227903761
  H   6.49542839237016     -2.95873791165898     -0.47767022564494
  H   6.02277845502337     -2.97506821480469      1.23392684015566
  H   3.09793457939170      2.81983163445764     -0.48606461074491
  H   2.53466679952359     -2.72976404760728     -2.01494216834426
