23
Coordinates from ORCA-job 16860optt
  Br  0.88221844584692      1.19880018746752     -0.01487720756629
  C   2.80462311293516      0.40486850802253      0.01959836558089
  C   3.76720597260792      1.39586005188651      0.08120779867021
  O   3.47106378977211      2.74853674148748      0.12780540448496
  C   4.65323177706102      3.41375873388381      0.21076998840854
  C   5.71953234499039      2.57409816279911      0.20937406233992
  C   5.17214048123014      1.26728902266547      0.12210029990738
  N   5.89056834796005      0.09623199021300      0.09764903041005
  C   5.79904142262843     -1.09362641765307      0.03562472026801
  O   5.87854079860122     -2.26319478856865     -0.01757051530548
  O   2.90347429180234     -0.80590330656778     -0.02281113155660
  N   4.49999485514568      4.79443533008244      0.22639450469678
  C   3.21314073679158      5.40627670260664      0.52315289259456
  C   3.52532454671800      6.88595798511717      0.29043164414422
  N   4.94395391926048      6.93671158653153      0.61028480994211
  C   5.52485297596540      5.69264358586290      0.34163747518932
  O   6.71302852536627      5.47252647315302      0.25386172419207
  H   6.75490437457970      2.86079352370792      0.25328056859368
  H   2.92888844378366      5.20793061528955      1.56111289423740
  H   2.43523789050576      5.01627401579730     -0.12835697823730
  H   2.93886002363732      7.53430134921744      0.93931268919118
  H   3.33285903508674      7.15548454485720     -0.75339418282052
  H   5.49531388772366      7.72094540214093      0.29941114263491
