30
Coordinates from ORCA-job 16868optt
  Br  1.13109211349516     -0.03876401881423      0.38569875681264
  C   3.01210399493024      0.00071057809445      0.18702076264994
  C   3.70777266229242      1.21819735868041      0.27382390601164
  O   3.02472857141487      2.40609721267482      0.19610540717846
  C   3.82186407139002      3.57755593792294      0.21067752509041
  C   5.14526203455636      3.43873394094566     -0.54573058458232
  C   5.97591416338182      2.37372418963061      0.16389243546222
  C   6.54733772775268      2.89600040989933      1.51692509194880
  N   7.83541163027771      2.24032100905952      1.73472318067680
  C   8.39920657641543      2.18813206573520      0.38369575270496
  C   7.24699553727604      1.78498551739525     -0.54761105880522
  C   7.04220992123196      0.24490809275950     -0.62304564477760
  C   5.78085736527598     -0.00498495756559      0.15409626359990
  O   5.09117424830977     -1.18098231512101     -0.08735767816158
  C   3.70063063372837     -1.23965392611941      0.06169250453533
  N   3.15833958469535     -2.40399607882841      0.02865928552331
  C   5.08226598338873      1.18605198261528      0.31771601713741
  H   4.03329002670062      3.85483410689114      1.25178767058685
  H   3.19739428637539      4.35654921520680     -0.22782157213677
  H   5.64594558366874      4.41238131973642     -0.56071936472829
  H   4.94060848447454      3.14022592611252     -1.57726186597888
  H   5.87306415488744      2.70413029164239      2.34997388218514
  H   6.72439341048179      3.97741940357375      1.45061023543996
  H   7.63780031974087      1.28346345223315      2.02258953635410
  H   9.24833816716872      1.50498176784319      0.34070239647619
  H   8.75939617895894      3.19208108026374      0.13420240313831
  H   7.37805397670609      2.20457702346607     -1.54699786895739
  H   7.92423345837846     -0.29070392762918     -0.25266919799637
  H   6.89925760596170     -0.07964035907078     -1.66468210201611
  H   3.89805752668365     -3.09433629923357     -0.07169607537187
