27
Coordinates from ORCA-job 16869optt
  Br  0.96382466803921      0.79781123249223     -0.30521746777160
  C   2.77881325980928      0.51721278069718      0.18190500312754
  C   3.34502645570328     -0.72315852226879      0.06942491528130
  O   2.53685471897959     -1.78048073483914     -0.28093372803709
  C   3.12381913741725     -3.06759491487972     -0.21938487757555
  C   4.51259465719246     -3.11020858061522     -0.84395228813988
  C   5.41047107508770     -2.20940309875668     -0.00407606997795
  N   5.73682212897138     -2.95217719079874      1.25388826891673
  C   6.97222037355223     -3.22237004852750      1.19960974917053
  N   7.67604560088462     -2.82473028074981      0.06289595002771
  C   6.80411828465315     -1.83051211838304     -0.57257572034410
  C   7.04780731809405     -0.37205907263747     -0.11927251780962
  C   5.66666671426113      0.16644735217348      0.15164726146836
  C   4.73322112083220     -0.88796666500663      0.18396800763197
  C   5.38239879970090      1.53472995127450      0.25891045857821
  N   6.16850030715202      2.57320018887128      0.20861565967462
  S   3.66547821136858      1.96578111382933      0.60859845172544
  H   2.43064030471083     -3.72428051531594     -0.74575753257257
  H   3.19614995507240     -3.38801543285973      0.82534860995718
  H   4.46366305476274     -2.73395790730496     -1.86927713773291
  H   4.88307901938520     -4.13830993635481     -0.85609053483884
  H   7.49667024769539     -3.77804033144990      1.97220731093489
  H   8.63552549928864     -2.54618664939678      0.21626475705263
  H   6.83787623210756     -1.92034899634415     -1.65846258534214
  H   7.57427520646716      0.20704549228330     -0.88534110074087
  H   7.68368744289001     -0.36489778659043      0.77850259507037
  H   7.13275020592098      2.25647067145816      0.11455456226564
