24
Coordinates from ORCA-job 16872optt
  Br  1.15257451828618      0.07414328007130      0.56466829632682
  C   3.01057586914963     -0.03443991622355      0.28968826887093
  C   3.68353876318180     -1.18653369066286      0.31325744666346
  O   3.05815414092570     -2.39379681124130      0.50158981646325
  C   3.75982878208897     -3.52608690107267      0.22560777762538
  C   5.05332579265326     -3.53512186839174     -0.09764057770290
  C   5.79510513389511     -2.28935759738148     -0.12012180439363
  C   5.11341850936244     -1.15625434490738      0.14668283366796
  N   5.75681268431479      0.09006159505966      0.18277606613988
  C   5.05616246131581      1.23635948917423     -0.14264424395399
  N   5.51324192932727      2.32751580205799     -0.61993285637032
  N   3.67635266375869      1.19194523629558      0.14432468251853
  C   7.20470083778508      0.08906341631769      0.34206070804852
  N   7.85819274058772      1.12542389768651      0.83597345660557
  C   7.90000958713630     -1.10780038647854     -0.00810947591440
  N   9.18228646214544     -1.31441392797810      0.07648115912421
  N   7.13318439415579     -2.24034018044357     -0.42333482673385
  H   3.14101318609537     -4.40519228632367      0.32143079025928
  H   5.54448909190887     -4.47463344254150     -0.30807655283243
  H   6.51466158804832      2.24932243838440     -0.77390545827065
  H   3.18434866252626      1.89506832089435     -0.38829202693858
  H   7.21153431786976      1.84971999610956      1.13064348957043
  H   9.60416414570090     -0.44589134461252      0.39859875484096
  H   7.67132373778049     -3.08976077379240     -0.32872572361441
