25
Coordinates from ORCA-job 16878optt
  Br  0.84753454121635     -0.03586176770015      0.09995432931183
  C   2.72381701624567      0.01935338822415      0.17074420056457
  C   3.50421680700693     -1.12194971941271      0.19582105116210
  O   3.09764220183518     -2.41389645989219      0.19157108212050
  C   4.23901608796443     -3.18067607754555      0.21068521290302
  C   5.35566655224819     -2.41247337900698      0.22842562504227
  C   6.78344423714011     -2.82601235221488      0.25058501466990
  C   7.56567720266514     -2.26777774336541      1.45647467426393
  C   8.86128373027620     -3.07642680350818      1.44523868625072
  C   8.45646280940279     -4.43787519267517      0.89367716573742
  O   9.13977345569751     -5.42867584969737      0.89874672845158
  C   7.04630766598114     -4.32941162058091      0.33742260466530
  C   4.89566753319184     -1.04781047100353      0.22104523903290
  N   5.61354847976718      0.07767993362746      0.23023483801996
  O   4.79811967809951      1.23431332204597      0.21282742693515
  C   3.40803458194802      1.27009461713260      0.17961074466140
  O   2.91256830815453      2.37799518046851      0.16229015010685
  H   4.08455829782295     -4.24563511669527      0.19586169727133
  H   7.26889436030403     -2.43509540877738     -0.65263148865546
  H   6.99418077542201     -2.47286906175230      2.36590153985928
  H   7.69665348171910     -1.19062259586636      1.38027153725045
  H   9.36649301144715     -3.18410976271948      2.40408769412531
  H   9.58249654563308     -2.65196786563765      0.73908521080252
  H   6.37637341950674     -4.77829123751061      1.08134452968844
  H   6.93956921930415     -4.88799795593660     -0.59127549424125
