27
Coordinates from ORCA-job 16876optt
  Br  3.11834541758013     -0.49065102172746     -2.00025454282499
  C   3.19445955101728      0.00823410480912     -0.18222392939751
  C   2.75489440278083      1.27396077848221      0.25136393344570
  O   2.32937007881248      2.25027161668662     -0.61698005877063
  C   1.05285314297546      2.08189899243737     -1.24924141650003
  C   0.26943325602665      3.39246992138159     -1.16944241230333
  C   -0.33994364192961      3.68967829751119      0.22911887515096
  C   -0.01140982043477      5.11705900849224      0.71380241966908
  C   1.38227225822998      4.91863532884258      1.31718877609772
  C   1.34865309488558      3.42874226057260      1.61162874145656
  N   2.42733861319008      2.79431419364879      2.14054673856138
  C   2.84322537854958      1.53632036266490      1.61982372267053
  N   3.36317991573174      0.73366045130522      2.52941208764341
  O   3.91452706057108     -0.46020952174305      2.03497606688112
  C   3.79060124511507     -0.90180681493234      0.72167598871855
  O   4.23536003525629     -2.01117320454695      0.49579666306309
  N   0.31579052319516      2.81113904487280      1.18970749282533
  H   0.51284553330522      1.26531142447106     -0.76926756175660
  H   1.23149153066578      1.81964713071072     -2.29418379751866
  H   -0.51416634230642      3.38515075225378     -1.93191436210603
  H   0.96584817574961      4.19112114611844     -1.44510127705298
  H   -1.41443801735045      3.49852252908083      0.21442069692027
  H   -0.72032423970727      5.41469763930677      1.48806796144549
  H   -0.03907336776911      5.85916844390044     -0.08506908056429
  H   1.57839647440157      5.51872286698968      2.20725995632512
  H   2.18289871738480      5.10980084480486      0.59724326223024
  H   3.16057102407322      3.36131342360593      2.53464505569050
