24
Coordinates from ORCA-job 16883optt
  Br  1.23036670519981      0.08148475168522     -0.40347239170471
  C   3.12840627967378      0.03129474174532     -0.13585190840579
  C   3.71435365430533     -1.16925297088629      0.17223886971554
  O   2.96897148064704     -2.26503122382563      0.48071146079608
  C   2.98748299079896     -3.38260485083810     -0.40400947958739
  C   4.37091766993703     -3.67423844231932     -0.96281173035072
  C   5.46136213395386     -3.59683429705856      0.05629614528485
  C   5.87372746207703     -2.35074555476956      0.57109304815864
  C   7.11283470101569     -2.30712628062367      1.29488255636311
  N   7.80908293906539     -3.34883909401995      1.60110103682578
  N   7.31634469040668     -4.53790308174805      1.18592335748521
  C   6.21686262709559     -4.76395980689001      0.36074019412051
  O   6.00839270540477     -5.91939397429213     -0.03315992659165
  C   5.13585961477581     -1.15362085739060      0.36622315642385
  N   5.76982346924489      0.05757196021120      0.38879699549447
  C   5.06475388310003      1.12300796643206      0.09739089495409
  N   3.76695476004495      1.19550907540172     -0.22296793258474
  H   2.26892430280343     -3.20676027454272     -1.21341184867851
  H   2.63881523886420     -4.21801579662680      0.20289244499758
  H   4.58103698094880     -2.94707024264898     -1.75732394514491
  H   4.36412074950292     -4.67014056549473     -1.40821785398489
  H   7.49886948749243     -1.35527989344357      1.63458738567213
  H   7.89208789151047     -5.33931750657747      1.38358441405606
  H   5.59564758213103      2.07126621852064      0.10576505668542
