33
Coordinates from ORCA-job 16880optt
  Br  1.39823246886484      0.33964906261057     -0.85317746339562
  C   3.09419358138776      0.74124729829828     -0.05026924434821
  C   3.33617573722384      2.08962694844255      0.31668817344397
  O   2.26862362706142      2.69425324503425      1.03335399816395
  C   1.34129165506056      3.55568238750506      0.40874298876467
  C   1.53543249139637      5.00603500556621      0.89322292846318
  C   3.03060556426215      5.24199164290543      0.80927184743103
  C   3.73260004265605      6.57616165662457      0.56586932201181
  C   5.21612282307666      6.20313121663741      0.93153734831506
  N   5.20078098997450      4.84606011939806      1.51957656901902
  C   3.83555945091522      4.75303933812626      2.01516209277317
  C   5.43274080736125      3.79992725213414      0.48199535838636
  C   4.74526208015225      2.44105831140724      0.61689060203257
  C   5.60418958299139      1.40338620474527      0.73356635611666
  N   5.22819633937362      0.08274991303244      0.63450700673541
  C   4.01047254842804     -0.32263335767392      0.03112544263061
  N   3.82624690458103     -1.55581912149449     -0.35432575673002
  H   0.33733254843151      3.18409280397618      0.63131025495814
  H   1.48255262703997      3.51855594339068     -0.67667504046352
  H   1.16688512965066      5.13201438558437      1.91664065714895
  H   0.96027659339668      5.67823126382313      0.24931608157021
  H   3.33538295239381      4.61551565958077     -0.02895783914020
  H   3.35897078522533      7.35771422947165      1.23334442346008
  H   3.63276636885241      6.93215317934264     -0.46050503827512
  H   5.61391753152181      6.90604543734199      1.66641206485559
  H   5.87456081386724      6.22732447673730      0.06186346084595
  H   3.59870024854489      3.75291845621482      2.35349314193047
  H   3.70405385151534      5.45245034646035      2.85223148019500
  H   6.50988866061381      3.62185886251997      0.46393491521934
  H   5.17526278245621      4.19048360181605     -0.51210514278298
  H   6.66905818915619      1.56265768719748      0.85975411780339
  H   5.95399342898494     -0.61230284393978      0.63830550232416
  H   4.65467079358205     -2.11026061281705     -0.14910060946303
