20
Coordinates from ORCA-job 16882optt
  Br  3.33217699269236      7.99579219428448     -0.58375697263877
  C   4.23952820171545      6.36965975232129     -0.28283966435239
  C   3.59812811232632      5.23699200663214      0.03439891786839
  O   2.25690810733772      5.29840693047008      0.29625390577736
  C   1.33726797570679      4.43929415720140     -0.25972381775571
  C   1.43770315021059      3.10389870465823     -0.27313126991548
  C   2.56485397845157      2.37228600392040      0.18200857146406
  C   3.87253095766460      2.80143538020883      0.44337840581286
  C   4.59830807459499      1.58347797480853      0.77591123704180
  N   3.88329241657481      0.50574137645256      0.75796656794766
  C   2.57034492317190      0.91487555726824      0.36600894661186
  O   1.62797007593698      0.15742649467944      0.21242614200419
  C   4.44518834032561      4.06913324901031      0.26815046693721
  N   5.77181886201169      4.20637932382471      0.29866300601193
  C   6.38222343372406      5.36480943068402      0.03230649184927
  O   7.55515720551951      5.61640389213650      0.05006733840581
  O   5.55537326735082      6.47936605349749     -0.36923657141540
  H   0.45456333810298      4.97130771706295     -0.58748139218816
  H   0.59121814251735      2.53519539829568     -0.64008827787682
  H   5.65244444406386      1.57411840258269      1.02671796841035
