27
Coordinates from ORCA-job 16890optt
  Br  3.19570660935326     -0.86570333044285     -1.69554182044295
  C   3.40839826854871      0.13451844348068     -0.09257918518986
  C   3.32044669210365      1.51289982857090     -0.10941877207716
  O   2.67745424738301      2.24194699858856     -1.06891371655634
  C   1.25981922486453      2.10102484686677     -1.20768821735374
  C   0.58409454238667      3.47222570893865     -1.10949488018290
  C   0.21290124129346      3.91269784691177      0.32018417977373
  C   -1.00840457111505      3.13686198452621      0.89679274425965
  N   -0.41447796353866      2.36562700119812      1.98203967674277
  C   0.97028588824428      2.60463645520720      1.93784092589989
  N   1.32456837343924      3.60184699146299      1.20365070165272
  N   1.71902154382668      1.63831891803131      2.54724081987649
  C   2.91970777223547      1.41284798234650      2.09491196963257
  O   3.38511383091604      0.15417796757275      2.28301023591302
  C   3.71556794109439     -0.57952973917524      1.10653789428104
  O   4.17268947271086     -1.69493972048743      1.26266636170190
  C   3.77299320428405      2.19791499891003      1.14915945760940
  H   0.88783657823862      1.40280239926873     -0.45038121627534
  H   1.07222623152725      1.65568371029680     -2.18789138278270
  H   -0.32338402942661      3.47495133550446     -1.72367678911881
  H   1.27533894227191      4.19633091053156     -1.54676453987083
  H   0.00744487412397      4.98681500839070      0.30596499412785
  H   -1.46385952066614      2.48608709634675      0.14427866544232
  H   -1.78107662931710      3.81352445815408      1.26950003744075
  H   -0.64572129654702      1.38619190911834      2.05811790770247
  H   3.53897784169948      3.25250286532175      1.13615628719290
  H   4.82833069006506      1.99973712455988      1.35929766060113
