19
Coordinates from ORCA-job 16895optt
  Br  1.07510148083019     -0.02301454596883      0.05736591569212
  C   2.94861283467970      0.04594079993676      0.05037536090858
  C   3.73472308149301     -1.08909618652810      0.04883999020238
  O   3.31830134990011     -2.36786084639085      0.05012587263271
  C   4.43228670881073     -3.16712233975809      0.04875029603123
  C   5.57481516366049     -2.40237134748439      0.04667283366296
  C   6.93479137847774     -2.85624137902671      0.04618958136319
  C   8.08644927419841     -2.09639143397887      0.04563985168609
  N   9.23684166627887     -2.81591297508493      0.04580345974428
  N   9.07815949920576     -4.08165492054242      0.04677279032318
  S   7.43995816054372     -4.48201338512488      0.04713772389529
  C   5.14298262623887     -1.02999480882501      0.04626891743135
  N   5.83960916529026      0.10311981823533      0.04439988676726
  N   5.01880545004581      1.20432112629037      0.04475917204482
  C   3.63185234435075      1.30813926787951      0.04786623529361
  O   3.11907211295239      2.42628650822072      0.04820869206524
  H   4.25848858013952     -4.22801229373916      0.04969224013022
  H   8.10582857127745     -1.01787219969135      0.04507837867030
  H   5.49732055162617      2.08975114158092      0.04305280145521
