25
Coordinates from ORCA-job 16896optt
  Br  1.01456475209056     -0.25340750737793      0.61271807245036
  C   2.77305343814458     -0.21174956344123     -0.08767742105998
  C   3.64413308249797     -1.28616760475898      0.00568683897360
  O   3.19786274124631     -2.58170315213726      0.03604508847049
  C   4.33194614175594     -3.43230177697308      0.22824369007983
  C   5.59135582793518     -2.59974984321209     -0.07484833469006
  C   6.23932735359078     -2.89979683274861     -1.41420551401622
  C   6.51298709402829     -4.26987528554811     -1.85085976163717
  O   5.45411796495802     -3.52066530301760     -2.41903308132534
  C   5.02926727629830     -1.21129953806000      0.03167185873525
  C   5.73469163303123     -0.01635358695291      0.18230052385373
  N   4.96050683369682      1.15109561567505      0.43921379943933
  S   3.50796069150963      1.29786102077480     -0.42061161780801
  O   2.80322786528708      2.39330694137341      0.19112759347191
  O   3.83383339712739      1.42412451077050     -1.81938385200058
  C   7.12410388579246      0.06936611017706      0.19469643595798
  C   8.33861951353309      0.13616711475033      0.21633046852030
  H   4.21308737422743     -4.28636162489477     -0.43801395862749
  H   4.33541982791037     -3.77162422532880      1.26680040271593
  H   6.35994890947377     -2.76271435697323      0.68764566439464
  H   6.88540266992841     -2.10814900539303     -1.78354428990578
  H   6.20269888687248     -5.09820751025409     -1.21842956691405
  H   7.34535540386652     -4.47571037393945     -2.51602378305937
  H   5.48696659818015      2.01424068033000      0.35616203711530
  H   9.39856083701694      0.19767509716009      0.22798870686546
