24
Coordinates from ORCA-job 16893optt
  Br  1.09289118431695     -0.26721284363083      0.16326553617652
  C   2.96640412367918     -0.11460682547327      0.08868739053918
  C   3.76883736682093     -1.24387110373964      0.02183810940090
  O   3.32835740297375     -2.52320721839577     -0.03855520110250
  C   4.43000955175588     -3.33514154523075     -0.08529507726007
  C   5.57231308827732     -2.58644421908565     -0.06484154909312
  C   6.93821868656154     -3.05618675503900     -0.04481435386803
  C   7.54174337586311     -4.17390877597021     -0.50078445320947
  N   8.89136118832914     -4.08850520162271     -0.14462789056454
  C   9.15659724843754     -2.91172459320883      0.51777411021776
  O   10.23102324793472     -2.52336044845615      0.95153475998991
  N   7.93309030256671     -2.29160603765238      0.56485569177557
  C   5.17148541151272     -1.21134200934015      0.00414333609931
  C   5.82292016207413      0.02774022410947      0.06252200514230
  N   4.97915970320112      1.15855284872177      0.00973503980511
  C   3.58186690611559      1.17918888948516      0.10666365224007
  N   2.91064120495711      2.28717076676797      0.18686287511416
  H   4.24736000599116     -4.39429703824998     -0.07283525877464
  H   7.13399186724411     -5.00285232368630     -1.04869206435098
  H   9.61823364850564     -4.74296294719733     -0.36457123042600
  H   7.75807187547383     -1.41391295997240      1.03235701833743
  H   6.83816878678950      0.19090062679367     -0.27161495529528
  H   5.41065695107348      2.05412026454098      0.16055097601667
  H   3.54559670954479      3.08246922553236      0.17184153308972
