23
Coordinates from ORCA-job 16899optt
  Br  1.08424142059264     -0.18130537542527     -0.02988166444000
  C   2.95628769674276     -0.23206623263825     -0.25974266899153
  C   3.63970056504761     -1.44823340451371     -0.36026497677539
  O   3.05420553824297     -2.63719608031297     -0.01579208048369
  C   3.86685960778974     -3.31354984732228      0.94436433741656
  C   5.22888055932174     -3.72067908248746      0.38730914188063
  C   5.91096493486824     -2.56167434243746     -0.34115631345885
  C   6.54767340508660     -3.01413772617904     -1.65573858431480
  O   6.56634346115497     -4.14084442719294     -2.06903901596447
  C   7.01039174462321     -1.76451751807981      0.39255237973246
  N   7.97833644172743     -2.19207701194836      1.08178086756250
  O   6.86751014031677     -0.45127758726807      0.13254868356000
  C   5.69751625519791     -0.23578773139150     -0.66428263042719
  O   5.06634432879870      0.93082645569795     -0.37894097236886
  C   3.65744782856581      1.00775573682334     -0.27144619398595
  O   3.20434628194271      2.12219843499834     -0.16426048768375
  C   4.96979291104798     -1.44985090934532     -0.67013121838601
  H   3.30103231123607     -4.19430726875521      1.24578031557237
  H   3.98464519873812     -2.65556155117584      1.81223764364485
  H   5.10356969421881     -4.53821981727860     -0.32306423281312
  H   5.85302234121694     -4.09150763101137      1.20452087399923
  H   6.98001527547053     -2.18013690733014     -2.23890818318851
  H   7.92887205805152     -3.20685017542592      1.14155497991350
