20
Coordinates from ORCA-job 16906optt
  Br  0.81474103449585     -0.12405351986501     -0.96427932289073
  C   2.78793613728962      0.01317501256888      0.27749693481805
  C   3.58681255088972      1.13257797569177      0.20604883515146
  O   3.22172818213355      2.45728292742540      0.24624100639729
  C   4.36271571372122      3.15693193313497      0.19795782273796
  C   5.46970411427559      2.36706143045744      0.13367387328939
  C   6.84978563276518      2.79560629468013      0.07158028255125
  N   7.23947722374742      4.04217523754478      0.07886049000430
  C   8.59883776039906      4.12579631634736      0.00802860087154
  C   9.25889923972243      2.93903177896617     -0.05428134252580
  S   8.14141312176865      1.64314038801967     -0.02335570275661
  C   4.97291119069086      1.01029778298282      0.13265332342746
  N   5.66179696423774     -0.12256761243474      0.07504040737022
  C   4.92796602365398     -1.26456468428267      0.10321685314055
  O   5.36771197093580     -2.40258033888987      0.04707268575756
  N   3.50862299986826     -1.11919015943506      0.22898157606617
  H   4.27115534409333      4.23032501318896      0.21224905699812
  H   9.06811325055411      5.09951872490420      0.00442009450608
  H   10.32125346056350      2.77204158237849     -0.11629710396723
  H   3.01941808419389     -2.00400608338373      0.24169162905294
