21
Coordinates from ORCA-job 16911optt
  Br  0.85139675131317     -0.39657892017986      0.05405023858986
  C   2.73089520020804     -0.23595260266980      0.05402297831489
  C   3.55221111633136     -1.31404113160037     -0.03891302041634
  O   3.11644122727919     -2.62126709248289     -0.01414843927600
  C   4.22738405092253     -3.43049765553116     -0.39716001378931
  C   5.49078987443661     -2.63249772974991     -0.04217315209960
  C   6.62547972782845     -2.86831189812875     -0.97442161955615
  N   7.88675954463644     -2.98125441962641     -0.59263181294945
  N   8.50013445794371     -3.12162430100607     -1.74886734502479
  N   7.70860434086286     -3.11054574860184     -2.79217614882405
  N   6.51226658034170     -2.95362175406891     -2.32542902754841
  C   4.94612256345802     -1.22281550014845     -0.09994729580130
  N   5.72582779198176     -0.13420127252411     -0.09700546111362
  C   5.19341151262734      1.09626025500382     -0.05577492653870
  N   5.81194641968617      2.22383093579831     -0.09104216547880
  S   3.38603786785278      1.38755288151669      0.09124849348516
  H   4.19238627546851     -3.60037365632503     -1.47659303980334
  H   4.14707829401555     -4.38021373486436      0.13053896016136
  H   5.85112434691381     -2.86753203652319      0.96767475262092
  H   9.49901409067486     -3.21035536150769     -1.83446642330805
  H   6.80768796521705      2.01604074321999     -0.16478553164424
