20
Coordinates from ORCA-job 16910optt
  Br  1.03880164221934      0.22342666178567     -0.33676405430751
  C   2.90523130784104      0.15097328453095     -0.10010974114064
  C   3.70121800265784      1.25085088767485     -0.07158368430135
  O   3.29078935590426      2.54577762252300     -0.04883560928612
  C   4.42597974047101      3.30994298887072      0.00759804320493
  C   5.54584900075434      2.51715792123117      0.00159294457224
  C   6.89085503204136      3.07479340138417      0.00082595368682
  N   7.84818939421757      2.76099546376681     -0.86074124119496
  N   8.82515739639804      3.54309555755987     -0.46415179291522
  N   8.53636783525296      4.31541506897186      0.55398790388877
  N   7.31086612965692      4.03919930055910      0.86683875273527
  C   5.11650812120436      1.15915259776167     -0.04030812513942
  C   5.70201197137603     -0.12827893449980     -0.00354738737684
  Br  7.55138371366089     -0.36309256503807      0.30179552629624
  C   4.91447321287846     -1.30620044868696     -0.03183833351972
  O   5.29049329745405     -2.47581283660454      0.07123745962146
  N   3.51954330101087     -1.09293367220073     -0.20406507042243
  H   4.29618248558173      4.37657391940582      0.01654119906863
  H   9.73645918681715      3.53711347234518     -0.89210763665826
  H   2.97863987260162     -1.91614969134076      0.01163489318812
