18
Coordinates from ORCA-job 1691opt
  C   0.81483655408953     -0.90511227233752     -0.25977162645080
  C   2.32482831290577     -0.76764059015071     -0.09684634051326
  C   2.84846085968932     -1.84134355874477      0.85987434156302
  C   3.02092647400498     -0.87919746911059     -1.45312541440744
  O   2.51491398436984      0.51853427191157      0.44932698174912
  N   3.91791065521996      0.76492628194958      0.71038037119889
  C   4.25462514393906      1.90554483098856      0.04789989754034
  H   0.44187221015779     -0.11781614430529     -0.91734346805203
  H   0.32568844005796     -0.80405124754803      0.71132727454352
  H   0.55696593464317     -1.87754371195143     -0.68746031724764
  H   2.36538814798372     -1.73003841951031      1.83334043519351
  H   3.92069547500116     -1.70937290847549      0.99386856566638
  H   2.64140541125797     -2.84265098489375      0.47051459672132
  H   2.60408761235482     -0.14482348265221     -2.14503327916654
  H   2.90091517027391     -1.88272383962458     -1.87481928639981
  H   4.07943350200710     -0.65074245778488     -1.32716052447904
  H   5.21077875184602      2.32346879909047      0.35506400755507
  H   3.47726736019786      2.61558290314939     -0.23803621501464
