25
Coordinates from ORCA-job 16918optt
  Br  1.08708612077809      0.04920943712364      0.13838737427473
  C   2.97934242640329      0.06326547953680      0.09508275629925
  C   3.66494691518519      1.31163502457232      0.10261012584148
  O   2.88809325882624      2.45020784021075      0.04768270376995
  C   3.55291160784574      3.63501896006263      0.41540332470188
  C   4.86581611277171      3.78461102913208     -0.33371989447134
  C   5.79113204684671      2.64539199809242      0.07664811187165
  C   5.05660259985714      1.32289198349072      0.07500343008785
  C   5.76318322477620      0.12970516980741      0.05345086495084
  C   5.09629573761310     -1.13219459689542      0.05960889954232
  C   3.67571595048289     -1.11247449726590      0.07395742955497
  O   2.95409965911011     -2.28693026900069      0.07657935740371
  C   3.55137141786479     -3.50705114367382      0.05989182427414
  O   2.85985333642737     -4.49718639838404      0.05800661654828
  N   4.90093439589289     -3.50298744457610      0.04764661455313
  C   5.77409627198223     -2.36340908853963      0.04877684928657
  O   6.99464791276957     -2.58481175065821      0.03919411033407
  H   3.74682103953042      3.62398682086744      1.49777503386976
  H   2.85973517335028      4.44672102593762      0.19219968356146
  H   5.31125231899313      4.75836420827126     -0.11724717614326
  H   4.65759038615237      3.73934763723923     -1.40612879374395
  H   6.18135685541067      2.84158807372461      1.08089421336689
  H   6.65417690619914      2.58029689809629     -0.58883348656045
  H   6.84541682493643      0.13166476827180      0.03889010686312
  H   5.35152149999425     -4.40386116544325      0.03723991996294
