24
Coordinates from ORCA-job 16926optt
  Br  1.12406704870680     -0.13242994325711     -0.56518332808616
  C   3.00265512793638     -0.04853999733294     -0.28956908601038
  C   3.63991252506282      1.18465788922532     -0.20019059756466
  O   2.88604381011823      2.31461167752539     -0.36198507858789
  C   3.51490807041145      3.53267458428244     -0.30747324548779
  C   4.84695489364021      3.65408089956657     -0.07363878638457
  C   5.63927551465015      2.51392017901114      0.12142574890084
  C   5.00614545644176      1.24903722380734      0.05161174367090
  C   5.75967243704915      0.00374422978198      0.24095566927585
  O   6.96552071761065      0.03418438633146      0.50945611691822
  N   5.08067252131033     -1.18659662033280      0.10176628358723
  C   3.78521786377513     -1.19543520011873     -0.15081936000099
  C   3.14714318456803     -2.55094777857354     -0.27011192510083
  O   2.70593183937918     -2.76886185305131     -1.61339294646708
  C   1.66122625351271     -3.68450697561601     -1.65649068352385
  C   1.33097711387557     -4.01254505340889     -3.05034380042249
  N   1.03104060482728     -4.31351134021360     -4.11379053657048
  H   2.82247962920325      4.34281201782075     -0.47089260021581
  H   5.26759677546116      4.65069590487835     -0.04350696143463
  H   6.69961165408485      2.55476204861847      0.31774547684334
  H   2.28144882368451     -2.61809749906941      0.40073880312084
  H   3.88462032203688     -3.30913151776494      0.00018380615588
  H   0.75871744338484     -3.27724910028624     -1.18026420890804
  H   1.91816036926860     -4.62532816182370     -1.15123050370745
