25
Coordinates from ORCA-job 16923optt
  Br  1.15178412865817     -0.26557999397706      0.71430298077238
  C   2.90057013399398     -0.17870981837918     -0.23117084071775
  C   3.71509188803069     -1.30549054380848     -0.13427292213688
  O   3.07830293191230     -2.53527056842210     -0.10794084486696
  C   3.86986814984576     -3.61758942364713     -0.51383814270227
  C   5.21011002924013     -3.63601366948284      0.21860473022282
  C   5.97903508384054     -2.37043556467380     -0.14445569204274
  C   5.08773005470832     -1.15778300158434     -0.08123317229447
  C   5.63979066789675      0.13147301873965      0.00921034988295
  C   4.83439687980971      1.28723712307976      0.01319459943799
  O   5.15403999772020      2.45498660072700      0.12724817497175
  O   3.44727734399943      1.05539000475550     -0.17219885830562
  C   3.03953228286211     -4.82559563147395     -0.23918844012933
  C   1.80743194503189     -4.96398069878299      0.30323231684954
  C   1.60663738542524     -6.36739460522951      0.27066841783992
  N   2.62235051831501     -7.00122204983443     -0.24073359904810
  O   3.53723549097236     -6.02350806392957     -0.56501872635235
  H   4.06225946030015     -3.55397073554788     -1.59663486261303
  H   5.76190710603941     -4.53887649970720     -0.04765146111998
  H   5.00110951788688     -3.66337296594636      1.29110971312434
  H   6.40161282895233     -2.47128725458795     -1.15157502197717
  H   6.82446631142990     -2.23225346045019      0.53323206371246
  H   6.70626832411204      0.27652223375441      0.10271628086579
  H   1.16744091015192     -4.17367428672650      0.65248616986619
  H   0.75275062886444     -6.93960014486465      0.59990678676056
