25
Coordinates from ORCA-job 16927optt
  Br  0.66889874434991      0.12648457940828     -1.29845096252875
  C   2.86917594496939     -0.04847087870255     -0.03199871062047
  C   3.58567088650313     -1.23800332816978      0.01357192268520
  O   2.89416473291698     -2.42124514560491      0.01886487269933
  C   3.64280014309155     -3.56165205518221     -0.33742327293197
  C   4.91407142244616     -3.66505503819719      0.48786394168345
  C   5.79949179128897     -2.46619649610295      0.16972804952955
  C   4.98028023208302     -1.20152409938741      0.08507602436995
  N   5.65854505243262     -0.04913051640945      0.09969672904067
  C   4.96181440657284      1.06163686105299      0.02369987496767
  C   3.57449916435228      1.13496953890426     -0.04310888185588
  N   5.73026495497353      2.27075907483353      0.02226251886763
  N   5.27683651948274      3.39113863912055      0.67099834433723
  C   6.16279374461009      4.27142881666885      0.43175026922706
  O   7.18334861603668      3.84564363007628     -0.33597082946802
  C   6.90389427686890      2.50856904592278     -0.63798818441775
  O   7.59785116243280      1.84011308244409     -1.33891251167262
  H   3.89425323442058     -3.51242862887523     -1.40543790890098
  H   2.98033673096685     -4.41167178418476     -0.17711979680999
  H   5.42840649869831     -4.60475749824671      0.27641875763948
  H   4.63653126420053     -3.66459685345604      1.54502736025061
  H   6.30688873731919     -2.61610534526222     -0.78822798611765
  H   6.58146003617054     -2.32546972665835      0.91768052734534
  H   3.07505494913529      2.09270883122177     -0.12164459588541
  H   6.16066675367695      5.28985529478640      0.77964444856630
