26
Coordinates from ORCA-job 16934optt
  Br  0.71396605459283     -0.99059315215109      0.54003708214803
  C   2.26460702867183      0.14195455738919      0.39660368068241
  C   2.71609935024170      0.72886951937517      1.59424331041646
  O   1.82819239084043      0.89667853834322      2.64318939177868
  C   1.01869666667231      2.09639814990793      2.55842342336508
  C   1.37285377071733      2.91599317207915      1.35017113764414
  C   0.66432685552844      2.89888990639556      0.22691896107007
  C   1.24592256058881      3.19714617649272     -1.11239866909501
  C   1.73556735104365      4.45441235750488     -1.76813078511969
  N   2.64413344895257      3.49592125975063     -1.19754971671672
  C   3.46593712705711      2.55972488092399     -1.98659849181359
  C   3.72577647118225      1.36658284100850     -1.10304608049190
  S   4.91668875376760      1.56486163051408      0.16248099301181
  C   3.93271694832044      1.44519076207935      1.70588704784940
  O   4.34187667399322      2.04449157731295      2.69217485362088
  C   2.66737790990735      0.48568176488290     -0.88224424097869
  H   1.18733437816772      2.64392745640574      3.48813126348684
  H   -0.02808641225409      1.78134255886544      2.50777042578584
  H   2.35990857036208      3.36640434985462      1.33712051685591
  H   -0.30189888407650      2.39966604962149      0.21483710818146
  H   0.88686445617648      2.47769236139592     -1.85126082454885
  H   1.67923032164124      5.40710565731127     -1.25324057809617
  H   1.62857764054015      4.50119963236705     -2.85098045032566
  H   2.93013212127728      2.25153888006100     -2.90018426330412
  H   4.38405592371948      3.07646861369509     -2.27126733053516
  H   2.01414252236812      0.22245049861306     -1.71108776487144
