28
Coordinates from ORCA-job 16932optt
  Br  1.00465649751183      0.00772409319921     -1.34584934321454
  C   3.04470435734324      0.18892646042889      0.18086544885734
  C   3.72804738473468      1.38051035297305      0.27775498910965
  O   3.03836028423311      2.57682815236331      0.21449280845914
  C   3.79004445118004      3.71026714838629      0.56706620352714
  C   3.85963000304513      3.89247372238034      2.02690811896489
  C   3.92010081819003      4.04764652225259      3.21262893460209
  C   5.19309859467721      3.63689877017988     -0.04709079718281
  C   6.05649215639170      4.86722395607943      0.25688524231726
  C   6.73592470181721      5.16313448887256     -1.07511067780003
  N   5.65378979291799      4.87938906441131     -2.01384568503913
  C   5.11726906315017      3.58199803532296     -1.59150021147519
  O   5.86068844520554      2.50158171109368      0.47148977057622
  C   5.12093565694184      1.34321200195507      0.41380647599912
  N   5.81979881073371      0.23176506888121      0.50989058906219
  C   5.14313154151736     -0.91669651288532      0.45059212742434
  C   3.77084178511713     -0.98751704913317      0.26532346263692
  H   3.27074594312132      4.56617124764681      0.12889964039644
  H   3.96811541178316      4.16488328775628      4.26793985944674
  H   6.73997665046957      4.64825969687962      1.07418467386562
  H   5.42142932211118      5.70800664873301      0.54074362833207
  H   7.59838447055800      4.49356427476160     -1.20623521609419
  H   7.07525701455080      6.19531631825696     -1.16647197916641
  H   5.96546343767247      4.85899739353047     -2.97632406986728
  H   5.73732229423375      2.73691220332178     -1.91385651047783
  H   4.10281451596323      3.42818861235800     -1.95907334814071
  H   5.73896163355626     -1.82100980438700      0.53731100092905
  H   3.27901496127204     -1.94865586561899      0.17057486395192
