28
Coordinates from ORCA-job 16935optt
  Br  0.04439974644159     -0.18146152839337      0.40701852604900
  C   1.78134832144733      0.85140690498298      0.64010572385934
  C   2.58917251411170      0.91000744209131     -0.44505007754541
  O   2.16771066683371      0.96524989697666     -1.75202178078749
  C   1.22149870095151      2.00012240523869     -2.08223495577634
  C   1.35959344957308      3.32731332325802     -1.30566272057691
  C   0.24752299444634      3.53253386740110     -0.25773668388072
  C   0.46281563246604      4.52726623670825      0.91777148094909
  C   0.51258626438199      3.80860384014808      2.28671288637271
  N   2.00098402889772      3.81890936405638      2.25051856458821
  C   1.90735565843842      4.94209384152768      1.26037343212460
  C   2.59430124624749      2.66120231690251      1.71809943293050
  N   1.87846023901151      1.49838740940864      1.77206606376406
  C   3.85074251323919      2.80020347609012      1.06297274719757
  N   4.64154558159534      3.82755326620039      1.19988966306294
  S   4.22772759836214      1.42869545771772     -0.04495078719446
  H   0.21386260712608      1.59414144187054     -1.94308871359887
  H   1.37448727695036      2.16491151682310     -3.14984290571674
  H   1.34331080299275      4.15349829690168     -2.02201462905335
  H   2.34716121917806      3.34768265577446     -0.84901660109174
  H   0.00924575095655      2.56018808804902      0.16944304292896
  H   -0.65762925814721      3.83520640745716     -0.79246859523076
  H   -0.24278840083456      5.35749894617536      0.85025613391481
  H   0.17390748236857      4.44183045508759      3.10954113926804
  H   0.07078793605335      2.81740440486743      2.35617614317350
  H   1.94127672054104      5.89517334903204      1.79147975892732
  H   2.66968087772088      4.93669365195797      0.49041737805852
  H   5.42893182864900      3.74668326568841      0.56024633328359
