21
Coordinates from ORCA-job 16939opt
  Br  1.11469815860865     -0.04216029349444     -0.00418766932285
  C   2.98239909471473      0.13607480160899     -0.01139236371093
  C   3.62235389521952      1.31470796572884     -0.05064839161265
  O   2.91709676793926      2.48185977963676     -0.09569898421016
  C   3.59330464735411      3.69240545034396     -0.08580285068015
  C   2.70644419907900      4.80037211497882     -0.13160459883043
  C   1.95105887133406      5.73177824774444     -0.17115365765897
  C   4.92978845797650      3.74983445245746     -0.04579398864256
  C   5.92591901059221      4.85400438880073     -0.05014577550742
  O   5.71353020473339      6.08081110133064     -0.05027275097041
  C   7.16083686792953      4.12643988126981     -0.05825163001106
  N   7.05364288598081      2.78219291226249     -0.05652609100395
  C   5.72134668022617      2.51381489121879     -0.04286065831712
  C   5.06538844240043      1.31670132218890     -0.04754588280979
  C   5.67299499108839      0.00707007495216     -0.16561425458084
  N   5.05032924333467     -1.11009604253428     -0.12502295676460
  N   3.69379153561630     -1.08357025092018      0.16333273436210
  H   1.30825954462826      6.57690652209143     -0.20534991759017
  H   8.13337380030736      4.60205209172838     -0.06659175656393
  H   6.74194294753123     -0.04585601611459     -0.33612356480731
  H   3.24349975340497     -1.87034339527942     -0.28274499076677
