26
Coordinates from ORCA-job 16930optt
  Br  7.32850390370591     -2.63851372832685      0.00889524149668
  C   6.85685207416622     -1.18319474877287      1.13728473271453
  C   6.74120215015386     -1.41779280439020      2.51215834978295
  O   6.02640467018612     -0.53743296634179      3.26136964930350
  C   5.47451031558264      0.61055575488778      2.55839304877622
  C   6.53435393900551      1.15095296451611      1.65011768993204
  C   7.65439226629747      1.57442125896223      2.40879295852923
  C   8.90366650644829      0.95745752079364      2.30680417338617
  C   9.28448291516848      0.06561340279932      3.37196093904059
  C   9.67682711249119     -1.08565707861675      2.75582816923630
  C   10.08335587059626     -0.76352325468278      1.33509603990045
  N   9.54821150017836      0.58948011629937      1.15392424514821
  N   9.58185967494862     -2.37403809528217      3.19390983279089
  C   8.40167793450130     -2.92477420086084      3.35036915201535
  N   7.15889648315946     -2.47429457086131      3.19764896494289
  C   6.76798559037985      0.13890748162638      0.57097945146953
  N   6.98228980000147      0.41492332927854     -0.67176218702224
  H   5.19152380315245      1.30254085579309      3.35049419307570
  H   4.58745871901301      0.27680364032629      2.01382578101984
  H   7.42031417248022      1.92243542999641      3.41110347456634
  H   8.83358911910441      0.10601305256117      4.35199473791501
  H   9.63217381300907     -1.46383699543862      0.63142350686320
  H   11.16999776729770     -0.79543850589738      1.20610737963318
  H   9.05661383158532      0.76181126812504      0.28589003974736
  H   8.44301044402908     -3.94375846205846      3.73434790122682
  H   6.87384562335757      1.42233933556463     -0.78595746549077
