19
Coordinates from ORCA-job 16945opt
  Br  1.49889411248372     -1.51055190830119     -1.41077818152468
  C   3.11034411987601     -0.99763738274648     -0.54086126465606
  C   3.83760699835784     -1.91223475325088      0.23679102356571
  O   4.06463897208632     -3.30172246843138      0.06132497322075
  C   5.37580604637440     -3.64692381663219      0.59816963034714
  C   6.05792672432101     -4.57140103936010     -0.30192089501669
  C   6.62497182684343     -5.33531125463632     -1.02763430380652
  C   6.06283698092127     -2.30283513567031      0.79314554260700
  N   7.23661378075823     -1.74251344591044      0.81319595986178
  O   6.97329851273300     -0.35745154667427      0.67847287704510
  C   5.63397258275457     -0.17264067215449      0.51256571682721
  C   4.81841413661460      0.83208332898655     -0.10013915946462
  C   3.55100038031403      0.32075079931951     -0.60898351621857
  S   2.78226700203346      1.69948886653943     -1.31040994423719
  N   4.09284203277394      2.76964236889525     -0.90631396066529
  N   5.03503553597977      2.12771983262047     -0.28928356750199
  C   5.03776567382257     -1.37253393942622      0.68876318763633
  H   5.21934605586370     -4.13432157622630      1.56710382405263
  H   7.12841852508783     -6.00060625694053     -1.68620794207204
