19
Coordinates from ORCA-job 16940optt
  Br  1.04709233071658     -0.24376836332360      0.04987413466839
  C   2.93251421691958     -0.22390776753089     -0.20881760657731
  C   3.66815702093925     -1.33627508927755     -0.05323356011092
  O   3.03457600044253     -2.54169668879856      0.14593211844389
  C   3.75083958670239     -3.70882154861300      0.04684396216406
  C   2.94082872675685     -4.87286200870950      0.14178530916388
  C   2.27280237172098     -5.86395271627645      0.23564663252223
  C   5.08481186145708     -3.69162357621556     -0.07269886397005
  C   6.12179768225178     -4.78704610787307     -0.09009082635461
  O   5.91773761961747     -5.97660724588723     -0.18006886860838
  N   7.37392509949661     -4.17033552624202      0.02281510917871
  C   7.16747673016839     -2.86200008835242      0.09252448462162
  C   5.81577770614586     -2.46203915945357      0.02146188580251
  C   5.11729950934446     -1.25504200979895      0.09422944444636
  N   5.69710034157955     -0.12777197772889      0.59821703027782
  N   5.23628266290539      1.02563775469638      0.56095463175873
  S   3.75280591642674      1.28650533254652     -0.44225401824913
  H   1.69757141427064     -6.75387284569482      0.31651250711805
  H   8.00060320213726     -2.17652036746649      0.18936649370414
