26
Coordinates from ORCA-job 16947optt
  Br  2.99976075765857     -0.27013519914919     -0.24054400922949
  C   4.57524112997211      0.20579356382904     -1.22632087000241
  C   4.69349303868920     -0.41308287135902     -2.52316208480351
  O   5.98316594684911     -0.54293824262259     -2.98803847909364
  C   6.86840616234225      0.33626101111017     -2.31786200727375
  C   6.23325168214019      1.72884708964189     -2.13072830922231
  C   6.00095633646046      2.36742056954588     -3.42597532331024
  C   5.76594548339233      2.86258071349127     -4.49127894153788
  C   4.94534066449862      1.58546746465442     -1.29518329635361
  C   4.11583455758606      2.60644060045828     -0.93947464172227
  C   3.80667067143670      3.78845675186243     -1.77769174635027
  O   4.48848837639624      4.78330093102499     -1.95738898551679
  C   2.44654527440343      3.61838117172003     -2.39979682864825
  C   1.98675550649324      2.43907569611563     -2.90588503675455
  N   2.79661645112154      1.38745824298442     -3.21672983234682
  C   2.62630762638930      0.00903445420030     -3.37871190394926
  N   3.73547004638421     -0.76606436223292     -3.35321071722550
  H   7.75746902223755      0.39650023788549     -2.94360260062341
  H   7.12683058452694     -0.05614795057304     -1.33102063490225
  H   6.93160670148570      2.34727156886271     -1.56122832591020
  H   5.53612277843001      3.32015933037893     -5.42238630086509
  H   3.21182016469467      2.25397507139820     -0.45982888266839
  H   1.80295455342897      4.48979605015643     -2.43064052237368
  H   0.93599430328862      2.31111277885633     -3.15458851850643
  H   3.77005369586078      1.64647849647530     -3.25158014185832
  H   1.68789848383299     -0.35644316871545     -3.76914105895156
