21
Coordinates from ORCA-job 16955optt
  Br  0.86132667425278     -0.58231915892170     -0.47737009836707
  C   2.71219662332087     -0.25382844881194     -0.29047006658206
  C   3.59678187678250     -1.27886612790247     -0.18686913846544
  O   3.06958708154373     -2.54629608922732     -0.22538855448005
  C   3.85313342108414     -3.63553919287897     -0.12773403526645
  C   3.02541352586542     -4.88696606328703     -0.19832314525065
  C   2.51716780371212     -5.13591992592867     -1.54855842160973
  C   2.10481456950238     -5.33305841493858     -2.65523394190730
  C   5.18125318044901     -3.53271560225636      0.01489328022103
  Br  6.26997176593027     -5.07091962902849      0.16116046569461
  C   5.88304966413705     -2.23220142803977      0.06068442225179
  O   7.10006896605880     -2.17082425641686      0.17814755807162
  C   5.00819462360746     -1.06753883099072     -0.04057244774138
  N   5.58867411546077      0.12940250869990      0.01311269566214
  C   4.94728152635005      1.30620486969135     -0.04781821524823
  N   5.46996865317144      2.47415158840218      0.02356902874564
  S   3.14579347732256      1.42429348578843     -0.25548199002367
  H   2.17835603725062     -4.77200036226678      0.48293976143582
  H   3.61842885121078     -5.73795874381755      0.13065408853010
  H   1.74190293788389     -5.49352223511831     -3.64135122582106
  H   6.47563462510325      2.34642205724967      0.13500998015034
