24
Coordinates from ORCA-job 16954optt
  Br  1.20401346316251      0.19677662936639      0.50983944390283
  C   3.09208788962191      0.19710613013769      0.30271730703802
  C   3.77919285703220      1.39499299738331      0.22243976381789
  O   3.15913687788115      2.60551151319418      0.30071890408502
  C   3.85305673836469      3.64767974519512     -0.36946685430096
  C   5.30659432486196      3.80490978820321      0.10520780743717
  C   5.35932065936606      4.34835581194563      1.46496638662319
  C   5.37632879307846      4.78652202133874      2.58117140236920
  C   6.00563396101000      2.46813017208388     -0.00133749331545
  N   7.33441721121946      2.44119088889521     -0.16651585082096
  C   7.93539754257820      1.21849202026148     -0.24633447105881
  N   9.19863525643223      1.00880306607827     -0.40375371878557
  N   7.13616240665365      0.06323835152965     -0.15772396092123
  C   5.77533616188828      0.05659451563516     -0.00420967241096
  N   5.11996572751197     -1.07719563170631      0.07352006870992
  C   3.77495631882321     -1.01094402810645      0.23688982058004
  C   5.18147813940910      1.34604107311762      0.06992967636319
  H   3.27840875755961      4.55164647782242     -0.17828893160130
  H   3.86334367434866      3.43879992672374     -1.44463524465567
  H   5.80997991519707      4.50899173768916     -0.56577188161083
  H   5.40451405441944      5.15166040572458      3.57847305991113
  H   9.64934510819037      1.91835430442913     -0.44381319317480
  H   7.62081117800368     -0.81873610299426     -0.20720866936952
  H   3.23688298338605     -1.94592181394757      0.31118630118844
