27
Coordinates from ORCA-job 16953optt
  Br  0.64080379522628     -0.63826348261113     -0.40594426131716
  C   2.48961629191772     -0.23325264336627     -0.25018294930803
  C   3.45499211480338     -1.16913135368482     -0.67282065463013
  O   2.95655470398295     -2.33306979333921     -1.20132336422416
  C   3.84268483669557     -3.30599954090985     -1.58309583652360
  C   5.18117194271656     -3.12654272311226     -1.53048348206246
  C   5.75041440614146     -1.92778683662980     -1.05405760082791
  C   7.24576147065203     -1.77182767517957     -1.04424272572565
  C   7.82233772603045     -1.67503790977014     -2.44450797845764
  C   7.75565027137619     -0.37369751967931     -3.17734283014420
  C   9.07862129397180     -0.89311628526342     -2.68507426254732
  C   4.81812175494212     -0.94750529437094     -0.60425394157723
  S   5.37352188594993      0.51559636776422      0.20641470871518
  O   5.86460974585419      0.11684994256814      1.50732851923950
  O   6.35858290447955      1.16971296513606     -0.62924526400363
  N   4.09885556960656      1.46551729210721      0.34765865491754
  C   2.86446821096412      1.01520484512145      0.19987189569917
  H   3.33630113894872     -4.19718758022520     -1.91787043089265
  H   5.81754279088047     -3.94272519610734     -1.85226806931831
  H   7.69277689806472     -2.63756781567863     -0.54110492937583
  H   7.53908030987911     -0.89004291108453     -0.47761639158678
  H   7.69318088008237     -2.56578943733994     -3.05000108842865
  H   7.31246123268039      0.45539052431526     -2.64212189411594
  H   7.57085191757965     -0.39986108047011     -4.24277539899955
  H   9.51877205957507     -0.39242167509435     -1.83275575172046
  H   9.78916797892326     -1.26378248255084     -3.41204994511344
  H   2.07709586807527      1.73033729945534      0.42486527232937
