25
Coordinates from ORCA-job 16961optt
  Br  3.41113381292140     -0.18471207104615      3.89247577815849
  C   3.67853475849410      0.05323747941637      2.04381387171071
  C   3.18192379987478      1.09082465037526      1.36138723987835
  O   2.37967471624963      2.01959839885361      1.99136855810972
  C   1.21710147919426      2.25852153160334      1.25635154429388
  C   0.81361741196906      3.47609337213751      0.90441240750385
  C   0.12579960616509      3.64368718714867     -0.39492788767673
  C   0.60722118477958      3.01816531695483     -1.55700315233187
  C   1.77922733216359      2.23464063604232     -1.71192930037405
  C   2.79852185480966      2.23941668456295     -0.75935583076468
  C   3.37250193629381      1.10832208082325     -0.10556512257455
  C   3.91997870619442     -0.02227067798330     -0.66356823858789
  C   4.44955738690391     -1.09887757440397      0.11580065136314
  N   5.01745802586519     -2.18269225254665     -0.24972963211402
  O   4.39762567402741     -0.94058718717715      1.49999625231680
  C   -1.01594452925030      4.47757633303124     -0.47610306551707
  C   -1.98973103473635      5.19356632909886     -0.52362978712894
  H   0.80344565978645      1.36833329441659      0.79544450605898
  H   1.27309768830718      4.33768313883155      1.38313268197342
  H   -0.05259485783499      3.08544789443693     -2.41831247028848
  H   1.74917433767482      1.46371867551817     -2.47795002292086
  H   2.83116786222534      3.12290830452652     -0.14523069487622
  H   4.03817486611631     -0.09199326351122     -1.73632193286021
  H   5.04344872012847     -2.20881011584450     -1.26454559134340
  H   -2.84811639832284      5.81720183473493     -0.56601076200837
