27
Coordinates from ORCA-job 16968optt
  Br  1.10493074398741     -0.38445933433554     -1.49283236060735
  C   2.87307851927630      0.00854805444391      0.10600609449324
  C   3.64517754570056     -1.12684643501081      0.28951530500431
  O   3.03944730627505     -2.32943675568494      0.55904719071386
  C   3.11674893306925     -3.30236806993383     -0.46660222314051
  C   4.43252084182084     -4.06303785464191     -0.42211507836362
  C   5.67650537247326     -3.21728278683981     -0.67970465147122
  C   5.71123569206750     -2.63483400675822     -2.11298996289209
  C   5.79493244015923     -3.67224971200821     -3.13395367113517
  C   5.87986873094094     -4.55009743132156     -3.94694543534542
  N   5.85815313327178     -2.16718090508586      0.32271437491861
  C   5.03701598297147     -1.02976877743401      0.24577962706411
  N   5.68007363067430      0.14161467291038      0.14614971765958
  C   4.94519167431891      1.23928160710328      0.05744372778689
  C   3.55195739544426      1.22717568546890      0.00018138737093
  C   2.86858882961324      2.47881184422365     -0.14985744697324
  N   2.38055474840679      3.51432654808964     -0.25769193902996
  H   2.93599774320593     -2.82818603858719     -1.43562685828591
  H   2.29123274716053     -3.99172040651217     -0.28618128986275
  H   4.40108585439762     -4.86379365381166     -1.16623190685828
  H   4.53469341119920     -4.51892619045114      0.56524755472637
  H   6.54190890506460     -3.87620045747503     -0.57782606293617
  H   6.57831183479806     -1.97488982265913     -2.19848940866196
  H   4.82971493365481     -2.01202387093634     -2.28692020841577
  H   5.94439088239954     -5.31792347848883     -4.67890450155414
  H   6.81650846452928     -1.83884826837040      0.32422548426168
  H   5.48017370311916      2.18331584410690      0.01356254153402
