30
Coordinates from ORCA-job 16966optt
  Br  1.80046348738368     -1.33875224352219      1.83184262693229
  C   2.63350750514959     -0.13872919099452      0.59712021788092
  C   2.57591662850145      1.23402770822927      0.84267161471094
  O   1.46466877072725      1.82323270956893      1.43155470104106
  C   0.20842766769860      1.53488623717881      0.80529397422136
  C   -0.47140452021543      2.79749461086831      0.30287161211839
  C   0.43968723066293      3.62811192904205     -0.60369946937276
  C   1.35816263993244      4.58946368249278      0.17565988424440
  C   2.82439576427287      4.56488591052419     -0.24669259577455
  C   3.60181090090849      3.37044875521849      0.34891426200772
  C   5.05703379188059      3.63905741097607      0.25986547970642
  N   6.16664392380754      3.92923240488126      0.26161900659019
  N   3.24567262173250      2.04114155265310     -0.11207583570171
  C   3.78346383166291      1.50532560209754     -1.33002059939592
  N   4.26789490126032      2.26456497485892     -2.25610915447879
  N   3.79484492417527      0.15426470446362     -1.47848768783720
  C   3.29178864107894     -0.61739380787125     -0.51296754835686
  H   -0.41854709302759      1.01373036715478      1.53362952568529
  H   0.38410587266759      0.85471784471339     -0.03316448162569
  H   -0.80786353955069      3.40648745740261      1.14806320805254
  H   -1.37071043578519      2.48602560141652     -0.23745267101725
  H   -0.16980940596023      4.20670779345964     -1.30131545703921
  H   1.04346635947206      2.95096938727237     -1.21295102669283
  H   0.98709325804356      5.61101456344885      0.06014526085734
  H   1.30311006902057      4.36091932158816      1.24206708506809
  H   2.90326036849703      4.56774831489069     -1.33475786666616
  H   3.32130754765133      5.46984420463116      0.11265986312277
  H   3.38665055471905      3.37178781735238      1.42111187651798
  H   4.20821753161564      3.24664461208382     -2.02335142323043
  H   3.41674020201682     -1.68986023607991     -0.63504438156834
