25
Coordinates from ORCA-job 16960optt
  Br  0.89369664180031     -0.15335792833574     -1.20135930548252
  C   2.82140699280928     -0.13838321132400      0.12118035629237
  C   3.59224178427511     -1.27383826346403      0.07288398120239
  O   3.19668884120891     -2.58762659383132      0.15083395960841
  C   4.33245128697558     -3.31091528794130      0.07152184189349
  C   5.44446076115421     -2.55134311441319     -0.05388996259434
  C   6.87741413186409     -2.95678860163676     -0.18746560249709
  C   7.08526732156231     -4.40108380098851     -0.12196759219530
  C   7.24150037618548     -5.58804540605108     -0.06532636407298
  C   4.97664856189222     -1.18582078664093     -0.06512309663694
  N   5.66999314617568     -0.06657459833877     -0.20412927409329
  C   4.94463264772425      1.08687837739010     -0.18876072815378
  N   5.40951556389711      2.28266181113702     -0.34302135024260
  N   3.53157589353612      1.00718606550619      0.03158085154633
  C   2.84337119525206      2.28160315838719      0.11907366634340
  C   2.86551489926060      3.01805881032169     -1.20441886500101
  O   2.50871214423971      4.15893141091216     -1.31768687737073
  H   4.21678738515162     -4.38201054504581      0.11493751316185
  H   7.46439952823822     -2.46880656899842      0.59574903623522
  H   7.27364479289918     -2.57474404733063     -1.13282132333345
  H   7.38168815241249     -6.64040824098159     -0.01572411556615
  H   6.41131162824304      2.20786771293606     -0.48820522152003
  H   3.31655791155045      2.91607109486594      0.86819608706855
  H   1.80458964748856      2.08415312788496      0.38045430452828
  H   3.18292876420328      2.41433542598083     -2.07251191912010
