25
Coordinates from ORCA-job 16979optt
  Br  0.94495092829746     -0.29343614706783     -0.06786277601318
  C   2.83537953117587     -0.14091523982890     -0.23069521876636
  C   3.62221978026958     -1.25678851920626     -0.08304224375434
  O   2.96503884505538     -2.47402653399388     -0.03665541774447
  C   3.74330356491651     -3.61019254751831     -0.31869535416612
  C   2.87707349894109     -4.83098731719469     -0.02624791495313
  C   2.58492586649206     -5.02126260037619      1.39233478655877
  C   2.35738755137882     -5.18375491852847      2.55696667096427
  C   5.03459810195334     -3.57520390050402      0.47689223005632
  N   5.75517308579331     -2.38718125295138      0.07423733778503
  C   7.01903089871197     -2.50367963660401     -0.39603571644017
  O   7.66933477584994     -3.53809959767731     -0.40065046754540
  C   5.01661096701429     -1.16961967302737      0.07322690318932
  C   5.72364035897203      0.04504677030880      0.23604896359913
  C   5.21208296702301      1.33663424869281      0.10523361314594
  O   5.78334405599401      2.41224900374972      0.25113252510379
  S   3.43423182571422      1.48492670213362     -0.36809775862014
  H   3.99790273318688     -3.61958786978443     -1.38717610227638
  H   3.38299113227245     -5.71926236255994     -0.41197571581554
  H   1.93930949051629     -4.71682090612324     -0.57350226987812
  H   2.15136995594699     -5.30929121778221      3.59211115792934
  H   5.65849909222793     -4.44149948813582      0.26546272472258
  H   4.80111753752151     -3.53647892018423      1.54374448475864
  H   7.41193795154794     -1.55794684641453     -0.78783865271412
  H   6.76254550322707      0.00617877057815      0.53708421087434
