27
Coordinates from ORCA-job 16975optt
  Br  0.87406484620108     -0.10378553802964     -1.15054328687980
  C   3.01102675834051     -0.13052211260690      0.10462264624112
  C   3.75335564986779     -1.26363212645935      0.22785757246351
  O   3.15073772952182     -2.50686536454709      0.38915742630205
  C   3.84789469457415     -3.51724874643605     -0.29480393882961
  C   3.02923923239653     -4.79046015436535     -0.11433011057645
  C   3.63239519734550     -5.94627967269181     -0.76973474931760
  C   4.15169450540629     -6.87904627666587     -1.31522595055540
  C   5.25358267396493     -3.63765546146023      0.28284981428853
  N   5.88621595957674     -2.33799084403885      0.25834626337847
  C   5.16089877995440     -1.18519887194359      0.18459768102722
  C   5.79012619814502      0.05753386677497      0.04789370352101
  C   7.19792164955878      0.12015799751258     -0.01845275701672
  C   8.40456407215913      0.14664352486002     -0.06931651804274
  C   5.00928669505310      1.27314683598603     -0.04433702999385
  N   5.41487465644744      2.49107624068851     -0.16006467331646
  N   3.63077241560950      1.05437523660663     -0.00505967996120
  H   3.91518364741621     -3.26350198212939     -1.36053575665439
  H   2.03045595434593     -4.60854465408087     -0.51452495550657
  H   2.91961287559287     -4.98278415841207      0.95588205930010
  H   4.60684366431601     -7.70627279566895     -1.80332103505486
  H   5.83996276060345     -4.34495522744240     -0.30625198650576
  H   5.17227518755414     -4.02773038397665      1.30550984400533
  H   6.88593748208050     -2.26195582872939      0.16704000669793
  H   9.46450573188134      0.18910469820789     -0.12318074375922
  H   6.43022321811615      2.51205031814261     -0.17935631269572
  H   3.06534776397023      1.88234148090539     -0.13671753255890
