24
Coordinates from ORCA-job 16985optt
  Br  1.46060155607834      0.96569881740679      2.73996371629576
  C   2.34544397523438      0.85813725597570      1.03914107403997
  C   3.26784434605878      1.80763586122499      0.75104373181447
  O   3.40561763712258      2.93859616863388      1.50533218734557
  C   2.70528835098321      4.05488318566286      0.93635654637802
  C   1.24762993874870      3.79060887922981      0.51842072748591
  C   1.09736232741947      3.13495798467766     -0.82618867913385
  C   0.48000442066294      1.99130836980655     -1.11756415157978
  C   -0.20309438592467      1.10624084842063     -0.11958805145728
  O   -1.07880657392045      1.51878704254292      0.61048975826970
  C   0.38692399875304     -0.29687129371968      0.00518680661533
  C   1.88417515131534     -0.10144919302898      0.09805583416457
  N   2.60793016865889     -0.50397911616655     -0.97469111232255
  C   3.74775452878402      0.00743785290033     -1.37715746338735
  O   4.53815713388137     -0.39662181996029     -2.20545314990901
  S   4.25274780393089      1.71455719986739     -0.69083239585982
  H   3.27268463932464      4.42448703523416      0.07410968756338
  H   2.73065148581041      4.81201844217903      1.71948877759094
  H   0.77638349178354      4.77963399450668      0.46910506553484
  H   0.72639428373253      3.23175348827821      1.29420121885167
  H   1.61733717262806      3.63882403645572     -1.63804428764327
  H   0.57596291688497      1.58467499764037     -2.11968302985304
  H   0.19309634896861     -0.87972560852704     -0.89671922313091
  H   -0.07409071691962     -0.77959442924119      0.86702641232673
