23
Coordinates from ORCA-job 16988optt
  Br  4.39227603432915     -1.65372754395598      2.59874136097838
  C   4.73142704275550     -0.73948098452834      0.96765863818117
  C   5.83407648052667      0.00651543362212      0.72699441782356
  O   5.76131001005400      0.62095299107783     -0.50404879991686
  C   5.70206885609436     -0.44459422283579     -1.45870619160353
  C   6.98366283630918     -0.71745774858969     -1.98187221389082
  C   7.70646682380843     -1.86751262578423     -1.63100926234926
  C   9.00621747798944     -1.70624998806445     -1.20703150568728
  C   9.49501675826141     -2.42974840344084     -0.04989624142801
  O   9.43541711473636     -3.63644616577276      0.14803360506805
  C   10.01486284104361     -1.51752000403091      1.03474489198821
  C   9.40806779338911     -0.39405919430969      1.44205310767539
  N   8.22946891948136      0.14297292648369      0.90493504879547
  C   7.11233637994311     -0.23044642977086      1.38260513409025
  C   4.60161065914054     -1.29232516885345     -1.30817722644422
  O   4.13060242501653     -2.20205134212865     -1.93568692843778
  O   3.87512892631643     -0.97607376739123     -0.00126203295164
  H   7.58386864529630      0.17917907878696     -2.10346780651243
  H   7.16956741397654     -2.77607610898046     -1.37345444006068
  H   9.42789542718526     -0.71498072148846     -1.33114245057175
  H   10.90026635395971     -1.84447409295682      1.56867844679750
  H   9.86367159652298      0.20041710338478      2.23231679573114
  H   7.06171318386390     -0.89081302047276      2.25299365272513
