22
Coordinates from ORCA-job 16981optt
  Br  1.15685765385416     -0.25669502576365      0.20383901142700
  C   3.03140364625524     -0.12989060307078      0.00639365972545
  C   3.76786293330557     -1.24493730750542     -0.08582147534775
  O   3.35691935415218     -2.54187051637133      0.07798092841133
  C   4.42101032568493     -3.37650330915440     -0.33911308320359
  C   4.28494990693810     -3.74864656432641     -1.75089196278348
  C   4.16622721696416     -4.04506884700973     -2.90323474756041
  C   5.67166722936437     -2.50136888242146     -0.05318353009802
  C   6.82351181478354     -2.88260056712664     -0.87998479832985
  N   7.73114481670147     -3.23854628517252     -1.48147738292321
  N   5.14619384004110     -1.18558013204640     -0.31867533348245
  C   5.83019647081142      0.02997917059943      0.14392725551409
  N   7.08166621578348     -0.01518073771167      0.46747180715513
  N   5.09582396799177      1.14165034676318      0.16923700826786
  C   3.74608000307453      1.11805720198301      0.01133687191722
  C   3.05032120286850      2.33832401776092     -0.09235283365169
  C   2.44786595605248      3.38500411422499     -0.17503806100653
  H   4.41256959124447     -4.27067084271514      0.28292009152776
  H   4.06797755962601     -4.29154580100903     -3.93286115233757
  H   5.96931683173485     -2.61986292704535      0.99878265663522
  H   7.49665314431706     -0.92557575564363      0.30964373613284
  H   1.92578031845050      4.30652925276206     -0.24789866598936
