25
Coordinates from ORCA-job 16989optt
  Br  0.81168154197401     -0.02578188958279     -1.83272445044384
  C   1.73105799603128      0.93429341491434     -0.49977763865021
  C   2.82825694959030      1.72353634213542     -0.71925782621857
  O   3.14164416549210      2.09351418289187     -2.03644791797711
  C   2.05029843465103      2.82814656785738     -2.49265789542361
  C   1.47770459165730      3.71329695840351     -1.66732841025102
  C   0.04570203136369      3.75034223241350     -1.40660711556546
  C   -0.30535391431348      3.70758825999630     -0.11130513911419
  C   -1.58711277154408      3.15013288076211      0.38585640598609
  O   -2.60583024550389      3.19161284406313     -0.30976959836859
  C   -1.58294377967043      2.56962374662725      1.71246580634746
  C   -0.58938588965357      2.34104730091830      2.67202915336317
  N   0.73675316245840      2.27565304319196      2.69546162159199
  C   1.51806790735749      1.94249240594400      1.65601084929657
  N   1.07841943437601      0.99375641450841      0.73227852161813
  C   2.80040857390000      2.43193098112141      1.45407825205620
  N   3.45611990806937      2.36004136789653      0.26227404595496
  H   1.60963082427336      2.43534580848934     -3.40123963910651
  H   2.08150426098945      3.99321411229711     -0.81102605388280
  H   -0.67992526402747      3.49687632428828     -2.17298366266155
  H   0.45606797583562      3.89056175428093      0.63909754282101
  H   -2.59008256703807      2.39485823829332      2.07633940759302
  H   -1.01514935306900      2.21246517541965      3.67096377570017
  H   0.08089320236231      0.81199562876746      0.73145588177216
  H   3.23857282443823      3.04645590410112      2.22881408356253
