25
Coordinates from ORCA-job 16986optt
  Br  2.40434599141347      1.40764283720088      3.21303289595162
  C   2.93686869631816      0.45872369304774      1.66164877067860
  C   2.03079035355333     -0.32303953250955      1.02597828108308
  O   0.77264955824876     -0.33690119256308      1.50994560371243
  C   -0.01622027408056     -1.39233762264888      1.08447269878241
  C   0.33286954453326     -2.67064219535394      1.29795808209727
  C   -0.14699977135910     -3.66967355537040      0.38573039112476
  C   -0.30897764003692     -3.28990146495026     -0.96401886454745
  C   0.37089364594867     -2.24472224743572     -1.64749082846497
  O   0.04184200252196     -1.89506262828521     -2.80326395321180
  C   1.70539965962499     -1.67019848325777     -1.21001575155438
  C   2.39654818251056     -1.02585532600184     -0.23517570902521
  N   3.79482950129600     -0.90109697012796     -0.47844023897667
  C   4.66554345334870     -0.06486059393040      0.14181356538814
  C   4.28939009396372      0.64649664870287      1.21749305681573
  C   -0.44199128205604     -4.97469585122459      0.83348356217256
  C   -0.69053417531526     -6.09498449663085      1.22103336262781
  H   -0.80283757259758     -1.09510751641470      0.40626463150146
  H   1.04809860576163     -2.90991484513187      2.08231328896123
  H   -0.95770387315765     -3.87448124834185     -1.60742215474740
  H   2.33737283368023     -1.81575100023120     -2.08760173296493
  H   4.11797688386919     -1.40107041299793     -1.28846618171318
  H   5.66520899476228     -0.03313778423567     -0.26856054942315
  H   4.96174361292509      1.30740332962267      1.73808930450442
  H   -0.91710702567692     -7.07583154093044      1.55819846922761
