20
Coordinates from ORCA-job 16983optt
  Br  1.06809198196205     -0.05905483647186      0.00658615371194
  C   2.93461407853372      0.09149710264211      0.02126154341522
  C   3.59986572898099      1.26015139532409      0.00305946990869
  O   3.03442709011150      2.48924368963802     -0.01776008534655
  C   4.07215311703232      3.39417048132176     -0.02345035230345
  C   3.72243117483295      4.74415897928554     -0.04283914528273
  C   3.36580579124374      5.89702066023312     -0.05972699973288
  C   5.30381039577676      2.72058599674452     -0.00847923055596
  C   6.58448614401755      3.44394057221895      0.00278775092339
  O   6.64562715380857      4.65592083972262      0.00460105217904
  C   5.02727539677845      1.33154339801645      0.00575592824174
  C   5.73524446832049      0.09257720066437      0.02243307293783
  C   7.15738362900879     -0.07223553249517     -0.01570126388938
  O   8.00063639417274      0.81671376612732     -0.07644991323584
  C   4.99745777628032     -1.14934249862396      0.06130684614936
  O   5.43697883117334     -2.27139015613656      0.09878311638896
  O   3.58746773292013     -1.08555580069582      0.05179526282020
  H   3.08102079672942      6.92007784165562     -0.07334057850335
  H   7.48078373477337      2.81736811719299      0.00981622775743
  H   7.47543858354273     -1.12539121636416      0.00656114441636
