29
Coordinates from ORCA-job 16991optt
  Br  2.19460358409482     -0.82358877785072     -1.90788751031684
  C   2.35275465582220      0.39363761965934     -0.46979667202368
  C   2.77204750184412      1.71254947664535     -0.69735199466200
  O   2.80045228852031      2.21427572137989     -1.98495171036883
  C   1.49529740926596      2.57378851734822     -2.43155378726982
  C   0.83466978782145      3.67844831120264     -1.59955353320705
  C   0.14885562748070      3.21935825993160     -0.29147957754566
  C   0.44461639840005      4.11276217711583      0.93130282937316
  C   0.74379030639600      3.34488415992376      2.23894206032628
  O   2.13673753439010      3.14419409408067      2.51280928856276
  C   2.75335019352722      2.20379778376040      1.66281648757829
  N   2.25853153219588      0.89742731607848      1.85071567291455
  C   2.14931137595356     -0.09563631313647      0.85753550545215
  N   1.85724465456017     -1.32377464258736      1.14588605004699
  C   3.01137347549920      2.59071284231161      0.33279337073162
  C   0.20660970047912      4.07580810662888      3.39753715719545
  N   -0.23690068880514      4.65700269674692      4.28159970480731
  H   0.85853088234283      1.68202271645515     -2.45770206781051
  H   1.63999096152953      2.92048512540282     -3.45572355753444
  H   0.10134837159844      4.17230917136203     -2.24391978296073
  H   1.60254474755899      4.42440063933108     -1.38086021963634
  H   0.44125864627827      2.19186762562821     -0.07493371958927
  H   -0.93262296222202      3.18917632899545     -0.44913152009328
  H   -0.39936539902591      4.78140779440042      1.11418559345606
  H   1.31105158852157      4.74941889405816      0.74645924513726
  H   0.24657323586649      2.36746137743476      2.21297408175686
  H   2.33281707157655      0.53098395701250      2.78821367734718
  H   1.73282661274144     -1.42795246607734      2.15070298636932
  H   3.24570090578802      3.62177148675768      0.11237194196320
