24
Coordinates from ORCA-job 16995optt
  Br  1.39590361474497     -0.47031612951445     -1.40951329216553
  C   3.08254643562351     -0.27482057373406     -0.54759588566407
  C   3.68980766258391     -1.44227452484189     -0.02859164257654
  O   2.95071281683864     -2.60373354021204      0.10868208666272
  C   3.13483986692044     -3.51598905251530     -0.93756784230870
  C   2.32365032708130     -4.77501988976339     -0.61130495274327
  C   0.89034020034056     -4.51220434238118     -0.55516095917421
  C   -0.28503623803817     -4.28578027546802     -0.52253587076488
  C   4.58872978805390     -3.93055809271829     -1.17103407866512
  O   4.84454599454637     -4.64837957199913     -2.11035930100100
  C   5.74391084779425     -3.54006608520495     -0.25098412694811
  O   5.47643969323218     -2.72187805945432      0.85372405075008
  C   4.99521011954404     -1.47406744164783      0.47584603889479
  C   5.81122724850374     -0.38867372645065      0.59352845607021
  S   5.27150877571017      1.22729668523025      0.23049762584309
  C   3.62804224106335      1.01678271497169     -0.57045320069919
  O   3.16259691930739      2.04864141194606     -1.03421069689032
  H   2.77720884179040     -3.08681493034425     -1.88133316066835
  H   2.66240466176513     -5.16070048681141      0.35399265002108
  H   2.53618738699612     -5.52467892031509     -1.37464356138456
  H   -1.32071895189481     -4.04994119269307     -0.48926041296315
  H   6.49636284462811     -3.07664719144330     -0.90196016120305
  H   6.15984534242725     -4.47661056510788      0.12900567627779
  H   6.83573356043719     -0.49956621952744      0.91823256130030
