25
Coordinates from ORCA-job 16990optt
  Br  5.07155242032063      1.55408679111307     -0.39235024673710
  C   5.81376856095065      0.67131196446094      1.11586782866987
  C   6.53502778044834      1.20745578459920      2.33362058987533
  O   5.53241179305407      1.50137991968278      3.35924188062731
  C   5.46761790567604      0.12647644484230      3.76028462512788
  C   6.45455927931612     -0.30773864784500      2.67454026749851
  C   7.69681267056551     -1.03765831550928      2.99728149504693
  C   8.78132107083182     -0.73411871342818      2.30250449168610
  C   10.13805717007419     -0.87455439632462      2.88363328772300
  O   10.60296856075681     -1.95548804935889      3.23826034764019
  C   10.74899395918784      0.42710204688627      3.05459452724808
  C   12.12465258591368      0.41309656052908      3.51508717741049
  O   12.82412723753409      1.39221060144231      3.74224568706013
  C   10.18283296750117      1.70086317902264      2.79491371341726
  C   8.97356659624449      2.35096688346211      2.43051061795561
  C   7.61063048150251      2.19910961041556      2.19036660710486
  N   5.74378576509555     -0.56884111140011      1.37346210053323
  H   4.46284337985022     -0.29207286681429      3.67532766669684
  H   5.85923189504267      0.00000202038710      4.77237305628756
  H   7.76047059154287     -1.61826300867324      3.91195026606075
  H   8.69416166153954     -0.08282016813232      1.43755942060249
  H   12.53879687708084     -0.59921989544074      3.65017145156576
  H   10.96368804308388      2.44533987137936      2.92488937106650
  H   9.21242935147292      3.39822270630404      2.25816229503428
  H   7.14669139541328      3.12415078839988      1.84950147479803
