21
Coordinates from ORCA-job 16996optt
  Br  3.91503789313054      0.46992896891650     -3.19818541221954
  C   3.43158232046658      0.48741719126255     -1.37700639213665
  C   2.17607239874436      0.67438092180365     -0.95172399570335
  O   1.14085993670410      0.81121940504822     -1.84702340398612
  C   0.26421348952247      1.77740014259296     -1.43018031384101
  C   0.69628511478220      2.94731025616327     -0.97423844088910
  C   -0.04541194988943      3.59227240969146      0.11532546609135
  C   -0.40848606376820      2.85449447676642      1.17680516552325
  C   -0.33614419098464      1.33304100578810      1.33041180457354
  O   -1.40645527903047      0.88908390891998      1.76324705592757
  N   0.73369958338153      0.60707843273653      1.07360394984192
  C   1.93515355667262      0.76926721818928      0.49041364531089
  C   3.13619806163942      0.82523815739147      1.22372655873563
  N   4.36829993173937      0.66742790758198      0.80698963153858
  O   4.49489894362962      0.30417761372761     -0.56896230371509
  C   -0.26312509404909      5.01342705309530      0.11608999381975
  N   -0.42551769022118      6.15109044796306      0.10104801998959
  H   -0.76361164848310      1.44115167479957     -1.36352649673201
  H   1.73396185508868      3.22830820920875     -1.12238595279297
  H   -0.92657069744089      3.32982603900314      2.00239380615230
  H   3.07705952836552      1.01645855935015      2.29017761451143
