25
Coordinates from ORCA-job 17007optt
  Br  1.24900920422228      0.05633694124188     -1.78820335223865
  C   2.88376051103458     -0.05589467111663     -0.26181144156126
  C   3.59254393162819     -1.25551352857265     -0.22143886595924
  O   2.87829856847161     -2.44161272670024     -0.23150272804473
  C   3.63446109591858     -3.55686677319297     -0.62406806672677
  C   4.87134535289645     -3.68757546769677      0.26531118256143
  C   4.47311246710406     -3.68735079380112      1.75270652951596
  C   3.64639619018619     -4.83884632284428      2.11333553618211
  N   3.02422931487073     -5.76418999316257      2.38064730610721
  C   5.77580845725129     -2.47281672784125     -0.00866830838515
  C   4.97198212110194     -1.19386421619109     -0.11390361609869
  N   5.69574181131736     -0.07377560058589     -0.11062197317271
  C   5.05274317168686      1.11650699213198     -0.17753349382954
  O   5.57830966862950      2.22173692839478     -0.18462739875512
  N   3.63816237752918      1.05488412942912     -0.21304392631539
  C   5.66335726689255     -4.93038863351846     -0.04986278639600
  O   5.51900151162303     -5.60423929742972     -1.03076149358038
  H   3.95263559079402     -3.46512026070844     -1.66791601613397
  H   2.98729838961538     -4.42890809062596     -0.53023151560786
  H   3.92058319874486     -2.77213133497553      1.97082004550960
  H   5.36646665555064     -3.70101583656919      2.38133472038903
  H   6.30438284117639     -2.61499662062601     -0.95548044137346
  H   6.53773228878453     -2.34667070553662      0.76458601808447
  H   3.18629950738153      1.95838583467874     -0.24380561435577
  H   6.45133850558795     -5.17907322418100      0.69373970018486
