24
Coordinates from ORCA-job 17014optt
  Br  2.28946326917421     -0.30532764464283     -1.61814953191498
  C   3.21106192412319     -0.65604089533704     -0.00692055215154
  C   2.71239057994881     -1.48690998598415      0.92746784557211
  O   3.50249263753025     -1.55874212939813      2.07539988701518
  C   4.60883524745010     -2.36096808375995      1.68287964922926
  C   4.36797518313100     -3.71106469075323      1.96123847518700
  C   4.55496648895709     -4.78880776983358      1.10016117812139
  C   3.54417164354515     -5.73842896027677      0.82771798944514
  N   2.25594094944712     -5.84796204829515      1.10184032339935
  C   1.33119278610282     -4.95573801825858      1.60996669957007
  N   0.18958475976162     -5.34849438141924      2.04505746695209
  C   1.61908440909729     -3.49090847896649      1.70242505545871
  C   1.80331013272867     -2.61270801221312      0.71547472733005
  C   5.48086776822666     -1.69166207983665      0.83474567151711
  S   4.87792337593695     -0.15839538592830      0.16061216575585
  C   6.71589529727240     -2.20172399026232      0.33147983507579
  O   7.22269700309516     -3.27745154763852      0.62686212285790
  H   3.64752902855784     -3.85686074949656      2.75102355804420
  H   5.43189478271290     -4.82245876564869      0.46271072362922
  H   3.89096172067884     -6.56034477472808      0.19801742917312
  H   0.15999688236154     -6.36506055547464      1.94308675692820
  H   1.83856870599714     -3.15383519333371      2.70750156784858
  H   1.56658449687385     -2.85382644421291     -0.31441886991046
  H   7.22961092728889     -1.52927941430086     -0.38318017413350
