28
Coordinates from ORCA-job 17011optt
  Br  1.01009108358857     -0.04579364805454      0.39320321681812
  C   2.90073211696587     -0.17171466074240      0.35127692111960
  C   3.53465585726935     -1.31267245097920      0.09342158550940
  O   2.90303382899507     -2.52749746967212      0.03557527726525
  C   3.41025577524959     -3.44824788028932     -0.91190783395673
  C   4.48933929073372     -4.34356992494195     -0.30124082883904
  C   4.77603182784748     -5.52898397622383     -1.23555962785885
  C   3.62361034057959     -6.40670935699241     -1.43746786201093
  N   2.71703401411456     -7.09278414823422     -1.58503403273394
  C   5.80440466554337     -3.61778470285579     -0.01828621743162
  C   5.64247896484901     -2.29716927252524      0.73080693138853
  N   4.91170367138358     -1.31640339432760     -0.06481352762368
  C   5.58023526370766     -0.07323033522128     -0.41171696523098
  N   6.78071837767661     -0.10591115807706     -0.96180902261354
  C   4.90673850371978      1.14293661550747     -0.08894093037558
  O   5.28416387025678      2.29918296701113     -0.31458115321184
  N   3.62624477952415      0.99443129271308      0.58499087798625
  H   3.80222820719045     -2.92640059902686     -1.79070266676192
  H   2.55740634947712     -4.06004063527526     -1.21357497758335
  H   4.08320620506842     -4.73040822329182      0.63868833339176
  H   5.59234638955463     -6.13358530070925     -0.83587207694163
  H   5.09770814706706     -5.15887097219113     -2.21284042667942
  H   6.30214696905623     -3.39943440818963     -0.96941129822574
  H   6.46153799461727     -4.28372488349920      0.55135752007469
  H   6.62670768977066     -1.87710919873660      0.93697733994620
  H   5.13353120521233     -2.46660211317098      1.68795544532874
  H   7.00949693372309     -1.07010868315154     -1.19803974864331
  H   3.10321167725788      1.85320652114762      0.49954574789357
