27
Coordinates from ORCA-job 17029optt
  Br  0.86467683388938      0.14937491851780      0.82625751701396
  C   2.90932789331315     -0.12451996689157     -0.39645389228831
  C   3.62882132388657     -1.29482600834907     -0.26620289425893
  O   2.94875694333712     -2.50523672629683     -0.23895838397249
  C   3.74980358727064     -3.61276285997380     -0.53023188343369
  C   4.97342660239812     -3.66572430873524      0.40501053933916
  C   4.47659544747930     -3.64767264543276      1.84898242988776
  C   5.55961945209244     -3.89496138238178      2.85280623732126
  O   6.68172374682575     -4.22661783175650      2.57378163691370
  C   5.84103048785533     -2.44930494001482      0.08338049985716
  C   5.01491283586050     -1.19403600845470     -0.09707463272162
  N   5.68533152883623     -0.05654880892187     -0.08979090560631
  C   5.00369030149343      1.11753912478845     -0.26190984929283
  N   5.51029598808480      2.29994663300436     -0.31644693752275
  N   3.60984089424598      1.01205101294426     -0.39259537280139
  C   5.70123810318439     -4.96581525682664      0.12542366212436
  O   5.22544562773958     -6.04736418591458      0.34571171733470
  H   4.09394697155295     -3.57348490807297     -1.57397723964142
  H   3.13320287256657     -4.50029913141568     -0.38982367120567
  H   3.71632177640147     -4.42184215085753      2.00746214979012
  H   3.98231053563468     -2.69686780341343      2.07375416509208
  H   5.26669857107639     -3.77251777612572      3.91281130552880
  H   6.38824213268549     -2.62750276343181     -0.84859887912300
  H   6.59186555672670     -2.26581556857379      0.85242566927478
  H   6.51528639157975      2.21221840241126     -0.20208034953341
  H   3.11514942136582      1.89238064201161     -0.44705384584544
  H   6.69743817261722     -4.87378970183653     -0.34860879223061
