25
Coordinates from ORCA-job 17021optt
  Br  0.99121470767273      0.54395504855888     -1.61398594346511
  C   3.04742782180226      0.38343303349402     -0.39402777725527
  C   3.62122379128875     -0.88805760561434     -0.51893696615457
  O   2.88303841933709     -2.02393617992158     -0.72473580190576
  C   2.02331061091423     -2.42523880270663      0.32430486489257
  C   2.77029706942530     -3.46958683700613      1.16490027089536
  C   2.08835667718806     -3.74474402509603      2.50714521727394
  C   0.76826430011615     -4.35407321420829      2.35552620510998
  N   -0.25476449545135     -4.85656980275368      2.23448789112146
  N   4.13460449553916     -3.00479795089177      1.40064590368731
  C   5.04514763648034     -3.30378355819556      0.37359862487354
  O   5.32261225401840     -4.44189774391236      0.06887922855274
  N   5.64262159772264     -2.20750114065255     -0.20017962241443
  C   4.99756600310238     -0.96760832612795     -0.39482966997058
  N   5.78064924279631      0.11822194956669     -0.42812003912380
  C   5.13656650179191      1.27457841581008     -0.46393643535558
  N   3.82262561932521      1.45988842533115     -0.37173750463187
  H   1.11748878029687     -2.83603670942477     -0.12115197509350
  H   1.73882565629811     -1.55456911840113      0.92650757375327
  H   2.85209458660317     -4.40398236227593      0.60816203831205
  H   1.97892200367856     -2.81498571526914      3.07089929788899
  H   2.71401665267275     -4.41875376405829      3.09258090853198
  H   4.14330109526091     -2.01665694687977      1.62733934121741
  H   6.45252963535250     -2.40095443058166     -0.76920548141726
  H   5.75305933676742      2.16665736121682     -0.52713014932289
