27
Coordinates from ORCA-job 17031optt
  Br  0.88081075266066      0.26090221091178     -0.74193592727253
  C   2.76242689105310      0.14162286782750     -0.48780115606130
  C   3.40555565437491     -1.08020086712490     -0.72958670536009
  O   2.74959619737162     -2.27980559738983     -0.53945416687630
  C   2.25490944028848     -2.51940845461906      0.78387355514473
  C   2.96330460983458     -3.72778563790354      1.36592950597498
  C   4.47947871479266     -3.54666136752072      1.27782204275286
  C   4.92042255617929     -3.60234634566776     -0.17372614460410
  O   4.93761406854224     -4.64242153322172     -0.77661773092204
  C   5.49620370567263     -2.30635833059857     -0.76898523628952
  C   5.71688402960787     -2.40955772963535     -2.21595867097676
  C   5.91010001095007     -2.44976175513913     -3.39651446878366
  N   4.78520972750042     -1.11186973602848     -0.36739549752451
  C   5.52631599498305      0.11380720947085     -0.17377708409741
  N   6.81688519746066      0.15972762273823     -0.17944812084024
  N   4.81610885080589      1.24550710046491      0.06689391654880
  C   3.49119301101875      1.24240884457579     -0.10768164464788
  H   1.17687855087499     -2.68002735873492      0.71669539570732
  H   2.43473494102471     -1.63286322837904      1.39900275686858
  H   2.68609871148552     -4.62696981244024      0.81043062060251
  H   2.65633624739593     -3.86850236308356      2.40558838244625
  H   4.98476185025892     -4.37174172173758      1.78233660552503
  H   4.77853351419074     -2.60274777376239      1.73656272903583
  H   6.47335305574571     -2.26758480715581     -0.27372904371669
  H   6.06577846130973     -2.48330668023668     -4.44698190780954
  H   7.24819714205876     -0.70610265429646     -0.47159443536845
  H   2.98230811255802      2.19204789868675      0.03205243054414
