27
Coordinates from ORCA-job 17038optt
  Br  0.41293644560697      1.63203477370167     -2.94500181843389
  C   1.34879062934921      1.68463500612538     -0.57348166671171
  C   2.62987057427536      2.06020903064638     -0.49244947523612
  O   3.08673130718678      3.14589508370527     -1.19133619733005
  C   3.30722223641270      4.30716174532411     -0.39977082476866
  C   2.05458323388016      5.14145833268711     -0.13200361767693
  C   1.01518001660396      4.51527607486131      0.81990807303535
  C   -0.23860136515230      4.04850001895857      0.08293648843307
  O   -0.91092984436277      3.02878716085228      0.82149469114019
  C   -1.31502646458105      1.90052495251763      0.10659145797779
  O   -0.59693200056073      0.73050262420348      0.48011840926825
  C   0.74735530978939      0.72163610258750      0.31025664774623
  N   1.37538172262018     -0.13373513925868      1.03175778544193
  S   3.03192414550524     -0.15819878096304      1.05287311979042
  C   3.62617988937277      1.32125409996205      0.28963846336853
  N   4.85037031252271      1.68391252268735      0.37494623584496
  H   4.01917893598517      4.90469208327997     -0.97139887863852
  H   3.78788292144286      4.02550986695193      0.54189850270781
  H   1.58781532120577      5.37677606752887     -1.09345404129720
  H   2.41099985417394      6.09094481229153      0.27896724890422
  H   0.73247985392955      5.23077382914887      1.59521016734154
  H   1.44450908535536      3.65575723998299      1.33575558996568
  H   0.02955523941961      3.67612421242569     -0.90657679636832
  H   -0.92923902474579      4.88981567211736     -0.04670778452631
  H   -2.33741086572260      1.65692590267132      0.39287476338349
  H   -1.23161763539962      2.06123204039917     -0.96746465953331
  H   5.38781016588711      1.04559466460380      0.96141811617155
