25
Coordinates from ORCA-job 17039optt
  Br  1.04819107724806      0.13002640222273      0.63891925073991
  C   2.92040064696894     -0.05538544861239      0.32722330563499
  C   3.48696505178234     -1.30667621697699      0.22513550122569
  O   2.74218103889751     -2.42931175586776      0.45958357080219
  C   3.27903229706921     -3.60119987305502     -0.12510740474469
  C   4.71326011191139     -3.83696130242960      0.32647860717307
  C   5.60918596188342     -2.65366035130065     -0.04696318863724
  C   6.38353356974134     -2.84530274746558     -1.36435810188202
  O   7.32795566737323     -3.93181645471375     -1.23861765478704
  C   8.60154056672112     -3.61812759652678     -1.00464026709376
  O   9.07481234508617     -2.52361098521012     -0.96123084477933
  C   5.53248645007082     -3.19640365047375     -2.50869491858230
  N   4.89051807617030     -3.51382013588954     -3.40396641530425
  C   4.84190685261848     -1.37940123635801     -0.10195992803567
  N   5.57641013504318     -0.21896361357383     -0.32322714007772
  C   4.90373632375592      0.90987974873690     -0.19295813891022
  N   3.62892705869560      1.09484385106872      0.12598904957936
  H   3.21974957921650     -3.52318669356301     -1.21444575065681
  H   2.63274307024050     -4.41618909294104      0.20132501858118
  H   5.09085088668220     -4.76883152156151     -0.10385614827595
  H   4.71186962744923     -3.95338580175347      1.41211576271919
  H   6.42199478161251     -2.56101008749295      0.69247614896972
  H   6.90597698117719     -1.91032616905436     -1.57337276332935
  H   9.17142300343493     -4.54595533838881     -0.86232419403956
  H   5.47334883914985      1.82177607118059     -0.36452335628938
