26
Coordinates from ORCA-job 17036optt
  Br  1.27914257089451     -3.26849483849555     -0.63710739013199
  C   2.97312559930000     -2.73814171465213      0.08703481706257
  C   3.18062432017475     -2.87944422388106      1.45765091680566
  O   4.29258584019454     -2.27685844193782      2.02667582072792
  C   5.36141816042691     -2.10084130457608      1.20109902387998
  C   5.26942486359740     -2.08354808087920     -0.12657373609429
  C   6.49485916300672     -2.17361550834364     -0.98778689744342
  C   6.90562754529691     -3.63544717573671     -1.17772567730628
  O   5.85359076998832     -4.37101473331353     -1.80375150501835
  C   4.89331558632953     -4.89994878582693     -1.03097705672451
  N   5.02912011546860     -5.20348746248750      0.18363282147316
  C   3.83442776216959     -5.71520820546185      0.83329835687476
  C   3.57347705279619     -5.08081725399226      2.19559002781349
  N   3.96079631538550     -5.55317967221910      3.30011266380565
  O   2.77103989736021     -3.97384446647130      2.22058056438461
  C   3.93099740882857     -2.19402680277667     -0.78951698131373
  O   3.78723267124579     -1.88943494363069     -1.99206944730152
  H   6.29241272946034     -2.01313979555561      1.75129642183624
  H   7.33942445050740     -1.64868484245603     -0.53098089345084
  H   6.28054496295716     -1.72691145684866     -1.95972573975971
  H   7.15139164367899     -4.09458248459794     -0.21924094543338
  H   7.75746013286452     -3.71792888349419     -1.85426645299511
  H   3.97523315894603     -5.03284310103672     -1.60924945755981
  H   2.93659128318625     -5.58458472405677      0.21828436818714
  H   3.97344713134539     -6.78335037655038      1.02088316798020
  H   4.49568886458950     -6.40262072072140      3.13183320970154
