27
Coordinates from ORCA-job 17040optt
  Br  1.26724674025940     -1.13312503645760     -0.11437462543863
  C   2.64331110211427      0.15783342548197     -0.05314065404574
  C   2.48522267055520      1.35268474044020      0.54837637322065
  O   1.39234045684553      1.69768099655691      1.27927362562120
  C   0.09075894582433      1.93269768832546      0.71903850161922
  C   -0.00567572500203      2.70119122167584     -0.59241493559233
  C   0.41715447683912      4.17391315576656     -0.49966964261297
  C   1.91677694676144      4.15181923344354     -0.31063799166584
  O   2.64115804182058      3.84283825946407     -1.29158960404705
  C   2.38421611784576      4.21258435064453      1.04766397929311
  O   1.86104303705444      4.81986601093645      1.99661823562452
  N   3.56179037528866      3.39661155684318      1.27242927321404
  C   3.68185018270236      2.19989299762426      0.63041177569457
  C   4.87431876324092      1.72725240050489      0.15229562998637
  C   5.00830345984933      0.46808046019954     -0.51516155545232
  N   6.04446629442557     -0.07008120656228     -1.07000904496267
  N   3.82517045546101     -0.25872600306809     -0.59170265112387
  H   -0.41086959266607      2.49571201892676      1.50809745378249
  H   -0.41503246556400      0.97054694204074      0.60905347541329
  H   -1.05262484938919      2.61645683727862     -0.90463388694063
  H   0.59909220598407      2.20999218052135     -1.36142430091234
  H   -0.08238215401639      4.66508640514621      0.33674969993925
  H   0.16571423237127      4.68689085124239     -1.43098997601866
  H   4.42645624492783      3.87953478612965      1.46984414091382
  H   5.74755442591536      2.36533257494635      0.18618636246265
  H   6.84126535522925      0.55013342775973     -0.97084052412419
  H   3.87237425532180     -1.12170027581144     -1.10944913384795
