24
Coordinates from ORCA-job 17049optt
  Br  2.88456018856773      1.94146901917620      2.12429000671698
  C   3.43428509059742      0.61666324554386      0.90576950125722
  C   2.69105208596672     -0.48040380146805      0.66400970671807
  O   1.51139273381511     -0.57886586011052      1.34463485610293
  C   0.57902044845653     -1.36642533851445      0.69706095331957
  C   -0.20879869972719     -2.27623162414319      1.25729733876260
  C   -0.49047940573033     -3.41638443518724      0.34662335636592
  C   -1.77999829075423     -3.98263441692722      0.19001911198301
  O   -2.81726565682318     -3.58494743791183      0.74770284038294
  N   0.58322289758983     -3.84637319212465     -0.35809778065308
  C   1.80323144229196     -3.62534964709056      0.22409023029087
  O   2.18182550895908     -4.09816834912183      1.28332443847185
  C   2.78521955732784     -2.76840488960029     -0.53958593462916
  C   3.19237456878611     -1.50121097346608     -0.31115262798460
  C   4.30365467243696     -0.97928043637025     -1.11884999256061
  C   4.99142364594936      0.11990596171457     -0.80117381081854
  N   4.66619572825101      0.87013945639512      0.31611341056919
  H   0.67139709306379     -1.33386011761859     -0.37963329058104
  H   -0.38835964138575     -2.33021528415927      2.32407337122021
  H   -1.80803361017777     -4.85751308548769     -0.48585783407046
  H   3.28596188332866     -3.28660645789882     -1.35282452745043
  H   4.61746463016101     -1.56205725755335     -1.97409821413149
  H   5.84575269971248      0.46584877716102     -1.36527095003260
  H   5.00090042933679      1.81590614476318      0.37953584075063
