22
Coordinates from ORCA-job 17046optt
  Br  3.79648098289030      0.31863542450674      2.58871761262521
  C   4.17162213614976      0.16429194533690      0.74716177146771
  C   5.17680074389372      0.78674004400202      0.14252414016011
  O   5.24310981726124      0.42569819888208     -1.22206500725125
  C   5.47950530850679     -0.96146356357383     -1.20866203712237
  C   6.77241809562861     -1.32494628996997     -1.26566579779897
  C   7.54164082910407     -2.46764566661848     -0.81012738872700
  C   7.27541847255817     -3.82847260405900     -1.23505778729483
  O   6.42611853247340     -4.18964661593175     -2.02957927516734
  N   8.67477691570046     -2.29499374521248     -0.11304944153292
  C   9.15781897489304     -1.18943654434863      0.46830877639503
  C   8.59470749358122      0.02582526469025      0.87090964010375
  N   7.28016148151146      0.23595864112449      0.72968594387141
  C   6.47608669107054      1.22917224390841      0.72770221015944
  C   4.32304063350702     -1.68202067609730     -0.65564045949612
  O   4.00391465863655     -2.81924659282568     -0.74010314033061
  O   3.47664527583147     -0.80515231193885      0.09954835196149
  H   7.40613979352953     -0.47827481010147     -1.51363528919506
  H   7.98356300385112     -4.55121779568537     -0.78627989793237
  H   10.21532693979680     -1.28154880979123      0.71894949047380
  H   9.26592386661328      0.78019681031917      1.28903506111119
  H   6.72177935301122      2.27254745338404      0.94232252351972
