22
Coordinates from ORCA-job 17052optt
  Br  0.64301655585665      0.79754548478265     -1.16241781298833
  C   2.42749145234637      0.36157903271272     -0.70516749635381
  C   3.42913444759253      1.23003692291015     -1.02988411251323
  O   3.13100247295506      2.38563783401516     -1.73550591525332
  C   3.26481221487984      3.52047323879953     -0.98638766894687
  C   4.44500413183326      4.12817704578190     -0.86605467035738
  C   4.63029787096696      5.30008038855501     -0.09111199955442
  C   4.78527187994846      6.28929116549695      0.57019450802281
  S   5.85709359067897      3.33683420643203     -1.66964138188862
  O   5.55381811398010      3.32927031256924     -3.07762023853965
  O   7.04916967956121      4.03335972536454     -1.24900091643926
  C   5.87073170632851      1.79054799427002     -0.94570013413468
  C   4.78874620733717      0.95219633321763     -0.68803557865993
  N   5.06053590717003     -0.21240699825527     -0.00970770097995
  C   4.10355658017341     -1.03311195750777      0.28453621853901
  C   2.69544400008218     -0.86996083658691     -0.01578499469719
  N   1.85171748311145     -1.79665387599602      0.35694422067482
  H   2.35671944039719      3.88027264649977     -0.51164830253057
  H   4.92746270455613      7.16350577887793      1.15708618561323
  H   6.83968365868542      1.52447018222759     -0.55134552814684
  H   4.36391523364598     -1.94373052778144      0.81777418636784
  H   0.90737466791307     -1.53941409638546      0.07547913276637
