28
Coordinates from ORCA-job 17057optt
  Br  2.10421063450146     -0.86282945014971     -1.13958003440154
  C   2.50666182172835      0.59213341360814      0.12960185724252
  C   2.14901972726299      1.87823034009827     -0.21593814966768
  O   1.07297983695055      2.08821279640701     -1.07042171799234
  C   -0.18905098796003      1.59132518337098     -0.67022165132358
  C   -0.88135760679820      2.49968562917655      0.32919439789391
  C   -1.06099540230870      3.95347591489852     -0.13390305175363
  N   0.07351815312292      4.84064460476147      0.09862414181059
  C   1.27165215481492      4.83957554913039     -0.76069672669518
  C   2.40519960927857      4.41829851327787      0.19552260913540
  N   1.83895794041245      4.69522248775649      1.54821001682247
  C   0.59115194968238      4.83723730180990      1.39152040620070
  C   2.93617618525418      2.99123431134341      0.16804632942546
  N   4.20741611438568      2.92371872408409      0.55722195277674
  C   4.85541688610852      1.78631097871076      0.84122418873876
  N   6.13305397455422      1.69074722002119      0.93504715283627
  S   3.80988788646240      0.32060971503765      1.22817231693952
  H   -0.09311653669331      0.58389889620922     -0.26132974220066
  H   -0.77727391135987      1.52797961487250     -1.59025453217159
  H   -0.32057907607569      2.48556761709460      1.26917392143580
  H   -1.86586339108932      2.06869639340574      0.53828883250719
  H   -1.91545050118996      4.38667237254741      0.39519560907565
  H   -1.30100739537052      3.98613950086754     -1.19927060702732
  H   1.15522127661129      4.19742172355069     -1.62441998711994
  H   1.44488994907217      5.86730615029441     -1.09109885642033
  H   3.27940645760748      5.05113508020492      0.05938568891837
  H   -0.10179976426113      4.95216046346845      2.22243522209844
  H   6.39967401529617      0.73118895414144      1.13327041291597
