24
Coordinates from ORCA-job 17058optt
  Br  0.91243870685517      0.56399035579076     -0.09358438450129
  C   3.15859745725274     -0.09227683680687      0.54514495856827
  C   3.66520648085352     -1.19617125040282     -0.05628478143319
  O   2.92515736948141     -2.30407613802939     -0.44141492588487
  C   3.18427937962738     -3.47329255391733      0.27593401239585
  C   4.68462222780408     -3.91294909891898      0.24337808811271
  C   5.42508311138397     -3.49867476706946     -1.04855958149407
  N   5.83567782982265     -2.11640128979416     -0.92980513414176
  C   7.09566543356407     -1.55952388379680     -1.01884033749739
  N   7.12186516057992     -0.31920913651791     -0.62334191012575
  C   5.82910046665971     -0.04206538236599     -0.23582455033151
  C   5.02890969691938     -1.14009018127708     -0.42238084227308
  C   5.27204375316782      1.13977827126019      0.38056670031103
  N   5.82530856628960      2.24839993116568      0.64698958832827
  O   3.94541261957040      0.98769070834922      0.75519105849502
  C   4.75901521556847     -5.36029155202698      0.43303715414227
  N   4.80743801070167     -6.49912001470070      0.55988843659481
  H   2.57968242160607     -4.25070211073340     -0.19242749648721
  H   2.88153625514809     -3.36926337780690      1.32274160598706
  H   5.21471152054622     -3.44861157710548      1.07825567673849
  H   4.76874066769465     -3.63500662639043     -1.90956464820490
  H   6.31706605774188     -4.10860459913735     -1.18477242517848
  H   7.93465288678033     -2.12686636179081     -1.39223322911375
  H   6.78978870438057      2.20133747202310      0.32490696699348
