21
Coordinates from ORCA-job 17065optt
  Br  1.18088187501888     -0.07025179585740      0.11142273483379
  C   3.08412319560402     -0.09841279652071      0.12003190986150
  C   3.75186709924204      1.06978535143612      0.05030146714694
  O   3.38372389824402      2.38680680055691     -0.03980992764855
  C   4.56411934819964      3.20281855346678     -0.00131685903356
  C   4.61787532505781      4.15389022740066     -1.19156966606448
  C   4.52172356020559      3.46040865933577     -2.47484089611992
  N   4.43182149260668      2.93646158784068     -3.48922725594792
  C   5.71411519751804      2.21416541969949      0.02857291760070
  N   6.97566947413926      2.42008503187591      0.03676685735191
  C   7.78051435449129      1.20518031319275      0.09841955150865
  O   8.98618023234905      1.35096238546913      0.09818866291228
  N   7.19109229248002     -0.03729089337097      0.16314417690647
  C   5.86871397716074     -0.16026095144223      0.14717834825747
  C   5.06493682961857     -1.30055167411942      0.20885073867951
  N   3.70807990171097     -1.28459902407863      0.19545359703643
  N   5.12535390241586      1.01506881008674      0.06274987651887
  H   4.55435614848054      3.80295689452888      0.91383885457718
  H   5.57224149746827      4.68319728095031     -1.14796397962101
  H   3.80526909413025      4.87823159195794     -1.12989842270007
  H   5.54934130385837     -2.26465177240872      0.27570731394380
