25
Coordinates from ORCA-job 17068optt
  Br  0.79200883892917     -0.69301144731115     -1.05336792662970
  C   2.82708818410257     -0.32267273815326      0.19582015453339
  C   3.68387429372634     -1.40121781644255      0.16631849714613
  O   3.31928732507337     -2.72749528524566      0.21833806976607
  C   4.45327659450654     -3.48060589430580     -0.20449880667591
  C   4.26168108543628     -3.75748204706159     -1.70431644678184
  C   5.26388206493197     -4.68552655576777     -2.21874930494221
  N   6.05386173851278     -5.43034923615819     -2.58875554490339
  C   5.69181253407156     -2.60877394560026      0.07173773222129
  C   5.05483834842545     -1.24280531009814      0.07814297395401
  N   5.66298927270268     -0.06730322504456      0.03433281452432
  C   4.87357814527026      1.01198680773074      0.07695445788091
  C   5.57066721836411      2.34087209276279      0.05687158151145
  C   5.51616923927746      3.08635404488539     -1.25574136463862
  O   5.22117879072103      2.62132668870815     -2.31837394331788
  C   3.48177188443830      0.88967552804686      0.15188532575485
  Br  2.43214427478630      2.50568023952242      0.22896824069532
  H   4.45391786478979     -4.41944307039429      0.34760959680094
  H   4.31733694519020     -2.81343762955828     -2.25206244410558
  H   3.26751262506903     -4.17499662456180     -1.86533709461385
  H   6.46243178978850     -2.72579609725390     -0.69094014853855
  H   6.13564155111835     -2.83982173693814      1.04305805647179
  H   6.63291044178734      2.17554950200593      0.26522682561107
  H   5.18800335830755      3.01324919007363      0.82831907772406
  H   5.82113559067292      4.15204456615947     -1.18144037944805
