23
Coordinates from ORCA-job 17060optt
  Br  3.93975406692607      0.49185357452674     -3.47051694387061
  C   4.54320628292170      1.84590197774673     -2.30194011912436
  C   3.96748532390243      3.04456161160272     -2.14581121586098
  O   4.70927484049719      4.08461671714461     -1.63152291555126
  C   6.04048955499822      3.90010260867659     -1.48068177187970
  C   6.56807753658841      2.67399730525576     -1.32044161863133
  C   7.96727897477420      2.52513045444331     -1.07242825129214
  N   9.08854115494017      2.38600382953240     -0.85786744002266
  C   5.60182620615454      1.56358481053705     -1.33059146202014
  C   5.39558601770918      0.75566574430765     -0.25099647420486
  C   4.31859705445003     -0.05863323827901      0.22543650658870
  C   2.94299570261856     -0.29741352635840      0.03331171098561
  N   1.91883167911907      0.11651457067791     -0.70832950781361
  C   1.75895628606424      1.24767751941528     -1.38964216972375
  C   2.22179607237083      2.54371652304700     -1.01088779171051
  N   2.43313239268861      3.08361486294442      0.11699057472014
  O   2.65698444830889      3.33164172641888     -2.16966696734734
  H   6.59917340035931      4.82504704394092     -1.47081754320561
  H   6.26368923975820      0.70458812734912      0.40660835570960
  H   4.67400640156819     -0.71699065017603      1.01220687764567
  H   2.63623400654566     -1.14314102961547      0.65191890197707
  H   1.17011061635219      1.20417465280319     -2.30028004863840
  H   2.12897274038402      2.43478478405859      0.84194931327048
