23
Coordinates from ORCA-job 17075optt
  Br  4.08273932270719      3.75341273841656      0.15051720931465
  C   5.22182544238262      2.25020907124265      0.18835984312922
  C   6.43149800561386      2.31804413416536      0.79406649799031
  O   7.21365341210532      1.20771423106309      0.87041672884588
  C   6.93627256446473      0.17175842831684     -0.04104591340489
  C   7.97824598415499     -0.76853647556637     -0.23013185190517
  C   9.35534964192409     -0.61805487763018     -0.06698017157317
  N   10.08567210681563      0.48146136382778      0.03332249146986
  C   9.50660805469740      1.61693745777931     -0.39054476694971
  C   9.61866910303594      2.84668737692530      0.17653624813486
  C   8.57747159870053      3.79706761774194     -0.14477294297206
  N   8.15908359636104      4.12004372874195     -1.30760662176103
  C   7.85116748674741      4.23261828854606      1.11093212029735
  O   8.08258065987117      5.19991920650242      1.76518667745176
  O   6.86209443604261      3.36873583460325      1.54242136749200
  N   5.75537055059110      0.05285725996799     -0.57671024823960
  C   4.84549531981505      1.04235847680589     -0.42782394988753
  H   7.62211323045308     -1.73580470272859     -0.55870222630749
  H   9.92179978102262     -1.54938119075686     -0.02646134815490
  H   8.80239953391576      1.53100618426416     -1.22632454245194
  H   10.13040790618787      2.94739587809719      1.12656406065941
  H   7.30542919867437      4.67603308835935     -1.24720886555626
  H   3.87005306371547      0.92151688131487     -0.87500979562156
