25
Coordinates from ORCA-job 17077optt
  Br  1.50342997440827     -0.60806377611650      2.14780465148124
  C   2.60772235235023      0.22715845081116      0.83212352815819
  C   3.53972157506530      1.18736016569341      1.27255482591114
  O   3.14561604843797      2.01303661313389      2.34259222396655
  C   1.99887522001559      2.69524896658133      2.08475376316226
  C   1.53514381520744      2.91157248325335      0.84749136739818
  C   0.20121279301759      3.35038468451506      0.44708100716778
  N   -0.64278753563722      3.87727392154372      1.25106815041240
  C   -0.05199292961173      3.15139698671709     -1.01661070636362
  C   -0.03476740565436      2.01381533697929     -1.72462642189195
  N   -0.09625597963007      0.68955234612937     -1.30840395096458
  C   0.79554270706599     -0.07051069231353     -0.82987399841497
  C   2.20533134092602      0.25511801664985     -0.51794457332038
  N   2.95893331187649      0.77973910801508     -1.45103306511453
  N   4.22802665554603      1.12903162709099     -0.98342726581276
  C   4.40976671251544      1.74609007198845      0.27619468984431
  N   5.25566145340041      2.69365526487947      0.49483658231555
  H   1.46735675962459      2.98282244312216      2.98365542110606
  H   2.15549072621707      2.62851860390164      0.01324669555276
  H   -1.51369097662655      4.06517718879989      0.75561904066716
  H   -0.22928453002359      4.06092252884434     -1.58078169681054
  H   -0.19717787831826      2.09901578489323     -2.79619466771673
  H   0.46003592133067     -1.06230333397131     -0.52876915623857
  H   4.74620037510177      1.58540197092960     -1.71884594332780
  H   5.69488949339489      2.98358523792895     -0.37751050116714
