28
Coordinates from ORCA-job 17071optt
  Br  2.83020866402874     -0.16128638411079     -2.79077563372148
  C   2.65151473738297      0.06569683442167     -0.92008846233658
  C   2.90629418812001      1.30921552563203     -0.31058720659117
  O   2.99959330620351      2.47219056372332     -1.04373425747270
  C   1.83168807132138      2.84305424233154     -1.76665674427577
  C   1.12223358761100      4.02146210474395     -1.12361860180327
  C   0.75428110963021      3.76164138167983      0.35617303735847
  N   1.73931379401286      4.34733648982772      1.27497341956708
  C   2.28801292055036      3.46262780312569      2.30136508456261
  C   3.45764454936509      2.61198273613224      1.80241903762379
  C   3.07811800075962      1.35353589113419      1.06638930290846
  N   2.96247419674881      0.29470751097823      1.85949159699924
  O   2.52772752172827     -0.89499698508119      1.24429802680614
  C   2.50203849283473     -1.09893616534290     -0.12725598750628
  O   2.33058003857387     -2.24535412766285     -0.49461157012734
  C   -0.59212889953038      4.27069003738857      0.65436583720859
  C   -1.67265603711355      4.72896952481137      0.90432237988283
  H   1.15432196157468      1.98822427568593     -1.82919231116625
  H   2.13944479447138      3.09453549864791     -2.78395308976925
  H   0.22188270181410      4.22720405737043     -1.70774497506636
  H   1.75206405333995      4.91199469510630     -1.14975098744840
  H   0.73808399566573      2.67858222790989      0.51990361147842
  H   1.33659761791575      5.16616958395776      1.70811710819909
  H   1.52757536189453      2.80312077056316      2.74197051285211
  H   2.65436739833440      4.11303523387784      3.09917799198666
  H   4.03162453878768      2.28751609402286      2.67314797890581
  H   4.09383741681213      3.24015338802528      1.17780434880552
  H   -2.63573808283787      5.11892719109997      1.12805055214001
