24
Coordinates from ORCA-job 17073optt
  Br  2.38714623917360     -1.15696674493507      1.14683955537836
  C   2.91647961678380      0.15222744405801     -0.09992395198668
  C   2.50859977801267      1.47728311565634      0.02475507211324
  O   1.75990038184090      1.80481848321846      1.14694591700070
  C   0.40622217309892      1.73709032485994      0.95812520796533
  C   -0.40005712626009      2.60464644828442      1.56587013201067
  C   -1.47893229726319      3.27882942190583      0.76259631247866
  N   -2.72923188687653      3.08409817073297      0.71756930883419
  C   -0.74827684517786      4.36876114087688      0.01443870122039
  C   0.35144992521349      3.99449988172929     -0.65658055128902
  C   1.60426561306717      4.62965605017595     -0.96152748682874
  C   2.73331962915615      3.88884889273628     -1.01374211840422
  C   2.95511383411254      2.42543910650639     -0.92272438995808
  N   3.81237914525269      2.07936970196246     -1.90168339732358
  O   4.22683242529113      0.74416633367249     -1.97779333783907
  C   3.81355336989160     -0.25370164127963     -1.13062610812152
  O   4.25919194794681     -1.36200982243956     -1.32778738067094
  H   0.09136704911690      1.07228503224254      0.15898166251681
  H   0.09904215785943      3.27993366437721      2.25523050242416
  H   -2.97538944350212      2.32702158814539      1.35571812013464
  H   -0.96444125277304      5.39795323185767      0.28204249431513
  H   0.42507532712345      2.93419500202365     -0.85610251588469
  H   1.67978403483701      5.70769640553690     -1.05242398670759
  H   3.65360620407456      4.40885876809517     -1.26019776137816
