21
Coordinates from ORCA-job 17084optt
  Br  0.98409108893624      0.01924416753216     -0.15631032831165
  C   2.90451122933527     -0.01541579809013     -0.08361311592156
  C   3.53296868184488     -1.25799509404756     -0.02371130382025
  O   2.76019441771711     -2.39257910142072     -0.00462824079189
  C   3.40970996237862     -3.57241927870475      0.02476157806978
  C   2.49031695845638     -4.74950258958303     -0.01906266881703
  C   1.74402297368537     -4.97810103765622      1.22533827840886
  N   1.15999318737991     -5.19686994353008      2.18644550533494
  C   4.77172313448916     -3.63419860740092      0.05217339333217
  N   5.58180016445771     -2.56856035498363      0.04824120456379
  C   4.94806432181538     -1.36006017215992      0.00574566560977
  C   5.62845494291196     -0.12938798729423     -0.02136683739405
  N   6.94191094106049      0.18213962867746     -0.01159442211444
  C   6.90607879179237      1.52647036238358     -0.05483344316062
  N   5.71507290461068      2.13365417423013     -0.09303089118185
  C   4.86306926284481      1.08195845189061     -0.07350833268021
  N   3.52285773298060      1.13246416266567     -0.10694415071429
  H   3.07115897764010     -5.64780904546388     -0.22877027008231
  H   1.75953319245771     -4.62179081863189     -0.82223776551223
  H   5.23876756714785     -4.61399164300365      0.07708511821183
  H   7.82369956605732      2.10275052459102     -0.05917897302876
