18
Coordinates from ORCA-job 170optt
  C   -3.15725165223589     -0.35344414446480      0.00000326130908
  C   -2.46280824251962      0.86485357658691      0.00000282936096
  C   -1.07846234641463      0.87361726193557     -0.00000159149745
  C   -0.36860578007090     -0.33589174377472     -0.00000139848979
  C   -1.03311703690475     -1.58414336307130     -0.00000074021993
  C   -2.47699221854692     -1.59329961490876     -0.00000134976039
  C   -0.35285999708658     -2.82400068777560     -0.00000476414137
  C   -1.04730276764066     -4.04229800278793     -0.00000052920798
  C   -2.43164982552899     -4.05106142300735      0.00000125749390
  C   -3.14150265426897     -2.84155114340787     -0.00000170174590
  H   -3.01304879167177      1.79995730224605      0.00000038813558
  H   -0.54000959029808      1.81554377005680     -0.00000020020294
  H   -4.24261160029291     -0.36022161580396      0.00000526823916
  H   0.71676340395098     -0.32897705136885     -0.00000278505795
  H   -4.22687222737576     -2.84846346887445     -0.00000567429430
  H   -2.97010428358031     -4.99298671748411     -0.00000391998524
  H   0.73250013313532     -2.81722997355744      0.00000176375309
  H   -0.49706452264956     -4.97740296053819      0.00000988631147
