25
Coordinates from ORCA-job 17107optt
  Br  1.66520030296626     -0.46629750300407     -2.77844591214654
  C   2.06292694022053      0.28348411162729     -1.09486942696254
  C   2.58516635293121      1.56482351176420     -0.96550512147978
  O   2.63564839591644      2.40139928405454     -2.05123741973112
  C   1.44298209086468      3.18856912367896     -2.12309704057638
  C   1.16250113562214      4.01659839423223     -0.86741041102161
  C   0.41351420759195      3.26768098686957      0.27410530687705
  N   0.81800793546827      3.80125172879721      1.56796720328180
  C   1.61799878253217      3.27656024250367      2.38451760634939
  O   2.36443264955943      2.13948607880032      2.42399764833761
  C   2.67276764174551      1.39415116142572      1.28584103444738
  O   1.82622019472642      0.28622708779541      1.25828111766789
  C   1.71002159928403     -0.44649215715656      0.08476623592442
  N   1.22982217624191     -1.62509853331223      0.13647153074333
  N   2.93654204271037      2.10171565696978      0.18008260331866
  C   -1.03745304441194      3.46937364901241      0.11983754088489
  C   -2.21343481586182      3.62289961845201     -0.05527136939472
  H   0.59443142793006      2.53304586382259     -2.35557907376209
  H   1.60424359286337      3.85463692457522     -2.97035172504573
  H   0.56440642862531      4.88486369088392     -1.15120423168698
  H   2.11107876080242      4.37000921517254     -0.46908222383082
  H   0.57452970586169      2.19217543998881      0.18742312852777
  H   1.79127133211858      3.80610180251385      3.31976767406742
  H   1.04290183219465     -1.85880822208202      1.10861039261618
  H   -3.25872766850366      3.75064284261459     -0.19661506740549
