25
Coordinates from ORCA-job 17118optt
  Br  1.43314299752598     -0.19075190531187     -0.46654069063091
  C   3.34200006211154     -0.19793088310721     -0.25266452261477
  C   3.93810461751660     -1.31933985293102      0.25841714770278
  O   3.20818940266769     -2.46508675212882      0.52995554127085
  C   3.24539198612084     -3.42066122698597     -0.51331100961585
  C   4.53247844339534     -4.25926346554055     -0.51783734214287
  C   5.75633029345389     -3.37053329680154     -0.58907891140582
  N   6.45310903331735     -3.15188044501554     -1.62878078144417
  N   6.01389638111655     -2.63216766378974      0.59437650620985
  C   5.34277144288486     -1.34505418584875      0.51302833376489
  C   6.01837061751215     -0.17242686636151      0.07342996653648
  C   7.44756029714626      0.23205233220530      0.07504351218772
  C   7.36875850847491      1.64572681749692     -0.48251702263988
  O   8.26667100802642      2.41234623390580     -0.68442624698916
  O   6.07712266673602      1.96901337717382     -0.73925814567258
  C   5.27432449524352      0.86557224987945     -0.41092719947097
  N   3.96598557349568      0.96499430670004     -0.58635504861599
  H   3.13124190632077     -2.91057451611592     -1.47575900618489
  H   2.38383285472312     -4.07318163168544     -0.36179385049201
  H   4.50368215250711     -4.94533298363804     -1.36800194634505
  H   4.56827205479833     -4.85477613087024      0.40002101698832
  H   6.07203862659430     -3.66763095373347     -2.42026222345275
  H   5.64423692204803     -3.13045263103550      1.39507682396636
  H   8.09091722859431     -0.37974846801709     -0.56346420664863
  H   7.91657042766831      0.26808854155691      1.06462930573907
