21
Coordinates from ORCA-job 17111optt
  Br  2.18447300376920     -2.11035919351317      2.05235466841725
  C   3.06802215595157     -0.87443310264260      0.92895220479606
  C   2.52833609324316      0.37175240369603      0.75029871123023
  O   1.33961290205771      0.70847795079787      1.41683555226687
  C   0.62658933849547      1.48176344047493      0.58125808171206
  C   0.19181020126710      2.72812496122260      0.78730070889080
  C   0.49709650163087      3.57697335077577     -0.38989573496387
  N   0.05066123690935      4.70381656980233     -0.74881299288181
  C   1.73460828750726      3.00715902263282     -1.12631083980869
  O   1.84073693084977      2.88391009064668     -2.30142925806746
  O   2.68969658613825      2.62686204620646     -0.21373809337239
  C   3.17530740672481      1.30659298041692     -0.13108403148164
  C   4.31152977346642      0.96474975436546     -0.79488037105548
  C   4.94158693574157     -0.32379232271019     -0.64830852886917
  O   5.97762063108040     -0.61879606139744     -1.25094111529640
  C   4.29351344760707     -1.31576557788706      0.29051537748865
  O   4.77964849660312     -2.42982234351890      0.47728329131085
  H   0.63453754983992      1.09838788762110     -0.43961183686878
  H   0.20361983540592      3.18230825381840      1.76992842842102
  H   -0.74350007244727      4.96553237921761     -0.16250435608481
  H   4.78649275815829      1.68855750997434     -1.44320986578330
