23
Coordinates from ORCA-job 17119optt
  Br  1.04145247875082      0.14678499463370     -0.32026553655980
  C   2.91073304705277      0.06823869545071     -0.15962590350821
  C   3.71940039421785      1.13226512598821     -0.25295816427404
  O   3.44557616690066      2.43454862331461     -0.50517741165315
  C   4.71219676023205      3.03969945483368     -0.60912918266777
  C   4.74447455482049      4.49334486721972     -0.28473752263919
  C   3.90272010910289      5.31987320668252     -1.15544868306591
  N   3.25030432289490      5.99380215756197     -1.81479718852870
  N   5.70748892971057      2.20723373922645     -0.28715003270780
  C   5.14385449313736      1.00016999293474     -0.10340274873601
  C   5.67488263876398     -0.25969184123299      0.14186749012514
  O   7.03870664070538     -0.44678469194365      0.34824072170678
  C   7.86157957151598     -0.12278152029452     -0.67101451944716
  N   9.11669770530267     -0.19002771113905     -0.60921928080070
  C   4.84105184997314     -1.41397498481526      0.26429594086163
  N   5.18558768939622     -2.64142280752299      0.49376869917258
  N   3.47032814862585     -1.16917129712932      0.11598157374009
  H   5.77788399690790      4.82427631378569     -0.38380458842179
  H   4.43174097211401      4.68799412567196      0.75362974953173
  H   7.34671363294444      0.20611130430479     -1.57180825616452
  H   9.39742114807383     -0.50502282296346      0.32043684154431
  H   6.19495285461129     -2.68699910447906      0.58936368968528
  H   2.88725189424476     -1.98846582008849      0.15695431280722
