21
Coordinates from ORCA-job 17113opt
  Br  9.42008033310626     -2.36781163066847     -4.35171160113012
  C   8.58629843797151     -1.72106202681371     -2.81289879697393
  C   8.64688768395412     -0.44678685623091     -2.40041526468121
  O   8.00843634816840     -0.07655421699469     -1.25191230645168
  C   6.76822742138998     -0.65937002342707     -0.93115720305925
  C   5.84926913712010      0.17143924093063     -0.29012333313724
  C   5.90254231399336      1.53231128542661     -0.06014928719310
  N   6.95343435774066      2.34796507858191     -0.57823518540726
  C   7.31133150947090      2.20087561360638     -1.87495997175294
  O   6.64372487444561      1.88058416816439     -2.81158274518126
  O   8.66829921737329      2.53323606535453     -2.03154324895069
  C   9.44129773950649      1.74618958893474     -2.82200061930996
  N   9.43363717779518      0.50234906158995     -3.02064946976098
  N   6.50953134088400     -1.91954968397415     -1.27747846633217
  S   7.69821913505800     -2.84512846310176     -1.76115442055770
  O   8.62463125513625     -3.19146046755846     -0.71021098413580
  O   7.18719758881950     -3.92471096553157     -2.55486559179974
  H   4.96059156016062     -0.34987391776464      0.04111944345507
  H   5.10136067700396      2.04628921294634      0.44863661981836
  H   7.74716573418077      2.51493234959903      0.02492637665537
  H   10.20183615671968      2.34613658693099     -3.31263394411349
