24
Coordinates from ORCA-job 17124optt
  Br  2.69800304825341     -1.97040389570786     -1.08162078760631
  C   2.99206264427574     -0.31512564169547     -0.24146963438505
  C   2.57217849613800      0.87084345601020     -0.79838101955649
  O   1.77509593530961      0.89514456829040     -1.94114313706093
  C   0.51927864921237      1.37872089255695     -1.55308680346984
  C   0.18602443021111      2.65777967542244     -1.64540963462360
  C   -0.86421019588038      3.32747501768963     -0.79092446339425
  N   -2.12254256957168      3.32642023695809     -0.99609830668569
  N   -0.24420646097116      4.05659792305039      0.22117427710780
  C   0.63152393873711      3.39498398332101      0.94499066182703
  C   1.70730536193655      3.89121417790989      1.71398770572355
  N   2.76413019776941      3.11374434435179      2.04947769303899
  C   3.02694192919491      2.08934202753225      1.21344522771071
  N   3.51970580524999      0.92061106143501      1.73164080403291
  C   3.57906993665532     -0.31926939251457      1.08004852987638
  O   4.02313110192502     -1.28935181415095      1.67786772575934
  C   2.78528020788136      2.08749831706950     -0.15740160273491
  H   -0.08275156984846      0.63958762755801     -1.03123526556134
  H   0.89121926781338      3.33316347515936     -2.11852346064105
  H   -2.31619611804036      2.79948768703872     -1.84503696590083
  H   0.61151462418575      2.30537912647750      0.90217845910322
  H   1.69869395779621      4.91669988240995      2.07011094755519
  H   3.71105949046879      0.89108205902681      2.72372174125797
  H   2.43768789129797      2.99337520480090     -0.61631269137282
