20
Coordinates from ORCA-job 17136optt
  Br  2.34771515188971     -1.54183931662110     -2.27809332699041
  C   2.92538689022295     -0.23169240595439     -0.99276136815666
  C   3.27511528524324      1.02942889720810     -1.44675794696974
  O   2.36717173909288      1.74639463350314     -2.32596083254405
  C   1.25016673318164      1.89310768330368     -1.56106087628806
  C   1.05357530971574      2.95064123231980     -0.77037365171822
  C   0.04381901533022      2.88808578145504      0.28914526906216
  N   -1.13886856126238      2.46028841193971      0.25391067346017
  O   0.43189077374357      3.42989705529676      1.50617261293641
  C   1.66945636842700      3.43135727445343      2.06715533962035
  N   2.69236287356142      2.72392164262162      1.92889719995886
  C   2.94848551717407      1.64790429037979      1.08194794598569
  S   4.05609246011411      2.06104605139705     -0.27688426614857
  N   2.49890523534397      0.48670025613728      1.27105753517823
  C   2.81309566363885     -0.60518562893834      0.38903361528566
  O   2.82122698543061     -1.74210680285953      0.83973925125744
  H   0.60597808096501      1.01623195808425     -1.51143200228960
  H   1.77895235143682      3.75310960051677     -0.75206710626738
  H   -1.36651188450012      2.18537929899265     -0.69804041514217
  H   1.68298401125066      4.22133008676425      2.81337234976991
