28
Coordinates from ORCA-job 17133optt
  Br  2.48877204887199     -0.58914703525353     -1.85238554483350
  C   3.03238264991236      0.64963900257091     -0.53831313072678
  C   2.26835092652357      1.81783643362845     -0.28621129237921
  O   1.00477822544465      1.95375165858862     -0.82976400419053
  C   -0.04222170200150      1.38587179013290     -0.06995154813353
  C   -0.80119754580993      2.47935571635379      0.68969199262009
  C   -1.52867835260533      3.38838617116671     -0.27717774221291
  N   -2.63642659921502      3.10554631201189     -0.82374648131923
  O   -0.97001741962058      4.55435860341675     -0.66171542878536
  C   0.04161150824446      5.22756188904010      0.08160468384971
  C   1.47989738274397      4.78203450952864     -0.20858377634580
  N   2.04906071657498      3.96986157599778      0.86033734807354
  C   2.79399951985684      2.80928252793293      0.53521099401412
  N   3.97437059988902      2.72405195788268      1.12949372391919
  N   4.58900597247781      1.49657703618408      0.99390209915015
  C   4.28627155116775      0.46987226465978      0.09554453259098
  O   5.09058935725131     -0.45897116058235     -0.03451727588362
  H   0.36142843851250      0.65149201768515      0.63139810221584
  H   -0.71612357624985      0.87441851184673     -0.76308679753670
  H   -0.08923710554350      3.01199520261123      1.31783200656807
  H   -1.55140686617425      2.00961442503201      1.32934008046185
  H   -2.94372775634169      2.18913427262024     -0.50897326548767
  H   -0.15581354735081      5.15730919833894      1.15425549089425
  H   -0.08820455545223      6.26808095744257     -0.21717255116505
  H   2.08782762125863      5.68045105626765     -0.36346276748978
  H   1.48632003801458      4.22009641646067     -1.14055473805206
  H   2.61435720112482      4.51326335735175      1.49841453421981
  H   5.52203126849543      1.45527533108285      1.36759075596415
