22
Coordinates from ORCA-job 17143optt
  Br  1.22484077099861     -0.25718318407443      0.09719407819673
  C   3.09648785004785     -0.08940965301680      0.05093597231350
  C   3.72885597585177      1.12532636238029      0.04685888513763
  O   2.93772328966575      2.22312281859222      0.09948085513167
  C   3.50733983903751      3.41968357786373     -0.41178596031374
  C   4.81321992635062      3.71866005344348      0.27814484895952
  C   5.76687749363593      2.53799682460915      0.16794876326467
  O   6.97826220489473      2.74475323326348      0.23441650285216
  C   5.15921644272368      1.24290493977512      0.02352271481918
  C   5.95108641670031      0.04938256400137     -0.04502939002088
  C   7.34324255963845     -0.05459992394038     -0.06390948125529
  C   8.53864060752075     -0.23025214615259     -0.07760040684005
  N   5.23473923534834     -1.15641202860270     -0.05835053351329
  N   5.75058149797923     -2.39285344587059     -0.12139666851633
  N   4.75126933487138     -3.20209257437347     -0.10196150534697
  N   3.58065857442273     -2.55499193435734     -0.02835127115712
  C   3.88951402524493     -1.26793426578357     -0.00032747814614
  H   2.75485903586534      4.19041848218911     -0.24692927549076
  H   3.66290340248885      3.30172584102795     -1.48984538061429
  H   4.63855789541050      3.93378964851775      1.33701473334260
  H   5.30258464005469      4.58680298370361     -0.16513582166411
  H   9.59253898124798     -0.35583817319541     -0.09089418113869
