24
Coordinates from ORCA-job 17149optt
  Br  1.06660383900539     -0.24038319973916      0.33367776375746
  C   2.96086595911010     -0.20267732679019      0.30218893017231
  C   3.67306307664101     -1.36907847945817      0.29310958273390
  O   2.99057860996883     -2.55111900592296      0.31561111159569
  C   3.68520007689703     -3.62339269790302     -0.31445472096215
  C   5.03725192050453     -3.83708194174321      0.34324015078502
  C   5.85801142580727     -2.55049427101134      0.33136417690149
  O   7.09337100070998     -2.63516756945739      0.37694911100260
  C   5.10618566100214     -1.33264110081185      0.28430224364625
  N   5.75642172492108     -0.12403823150301      0.29391943239323
  C   5.03965999361247      0.97786921222102      0.32767066373203
  C   3.64882672784658      1.04142657742299      0.32064185856405
  N   2.96515389379235      2.27585586241906      0.30338571000981
  C   3.23811252998498      3.29701234913267     -0.53657856559769
  O   2.72951024767204      4.40028062620773     -0.47965292717558
  C   2.82761259081028     -4.80894235548593     -0.25497115708121
  C   2.16455566336158     -5.80605467377344     -0.21913061025872
  H   3.83966559461755     -3.36006732865484     -1.36847765154692
  H   5.59722250657758     -4.60653452975479     -0.18993220638669
  H   4.88562570343481     -4.18224163381520      1.37056136083472
  H   5.58874989335839      1.91782177171444      0.36820297285978
  H   2.21590339225064      2.43896422512278      0.96350853694938
  H   3.99231577750869      3.02534763796824     -1.29189940186189
  H   1.56753219060461     -6.68466391638441     -0.18323636506688
