20
Coordinates from ORCA-job 17155optt
  Br  2.84895156312579      0.29155370386949      3.62090314819113
  C   3.71047484708985      0.02655476244274      1.97712271263561
  C   3.58483314447748      0.86105610271235      0.93687370084276
  O   2.89290477202516      2.03523572360142      1.16078916164155
  C   1.85032733449718      2.35188383688468      0.33622923377250
  C   1.90532523972015      2.46371641949722     -0.99016139971534
  C   3.08591422777384      2.24227160641135     -1.86799913033455
  O   3.05404558046227      2.79700103122330     -2.97942984374983
  C   4.13206632069452      1.36192390032166     -1.47748248577310
  C   4.28942626838722      0.63065833923417     -0.30459845069684
  C   5.25295323327411     -0.43901136827900     -0.29736471464950
  O   6.00863703435930     -0.71880983718419     -1.23087511935811
  C   5.32576967007739     -1.32717517671986      0.91818426581697
  N   6.08443099143616     -2.32670961278414      1.02396508657267
  O   4.49139850475304     -1.06928181486300      1.97966724143170
  C   0.64663892311337      2.66904078044911      1.06217259647505
  N   -0.31032077599434      2.93803480908298      1.63732788288626
  H   1.01260235395413      2.79548970073034     -1.50492533716001
  H   4.84968061945246      1.14518462000067     -2.25951603262129
  H   6.61094014732083     -2.37461752663130      0.15011748379237
