29
Coordinates from ORCA-job 17159optt
  Br  1.39655397495767     -1.41486374893803      0.31492471635521
  C   2.97239737586810     -0.25718937417062      0.52210041744096
  C   2.91836724289989      0.87444984868461      1.23546976392204
  O   1.72897515009883      1.44475771318802      1.62330686340400
  C   1.06363359163816      2.04123440084431      0.52269298875376
  C   1.89386397145267      3.09360052238172     -0.26661285710766
  C   2.00523451394703      2.78219450055508     -1.76058726471050
  O   2.83312312598221      1.66692499426153     -2.01834352860451
  C   4.17815218068245      1.99683749826179     -2.32147749865846
  C   5.11205672747141      0.82525071456655     -1.99413244731288
  C   4.99256499875074      0.43618543739647     -0.53759354822771
  N   4.03480555978772     -0.59302423289533     -0.25591905810687
  C   5.14348826052236      1.42696541629236      0.44258959784589
  C   4.17193967863928      1.67559411299778      1.43927484280843
  O   4.20799003149671      2.56864631808666      2.31853748311122
  C   1.30780201005797      4.44714589216968     -0.00037454376828
  O   0.92357868373053      5.22996609605205     -0.83290711400240
  H   0.16416406194672      2.49506998469090      0.94727931012164
  H   0.74981581489849      1.26706177801114     -0.18332076056852
  H   2.89694883192775      3.12187020996851      0.17528904790912
  H   2.36670754813643      3.66664232874191     -2.29469865196828
  H   1.01416067531277      2.55002375221284     -2.16002324278998
  H   4.49218585269199      2.85519018498456     -1.71626732032506
  H   4.24950452854904      2.27931836283083     -3.38282493796452
  H   6.12868034049310      1.15513802779201     -2.23749984875117
  H   4.87530015504149     -0.02751587161572     -2.63481356798029
  H   4.34445924637143     -1.55637475663419     -0.22437589194547
  H   5.91952954417213      2.18030820709957      0.32639676056248
  H   1.22801632247481      4.69459168218298      1.07691029055781
