23
Coordinates from ORCA-job 17151optt
  Br  1.28535343220611     -0.11135436668876     -0.57798198600911
  C   3.19961890440480     -0.05859916585084     -0.36743265958114
  C   3.85998177333446     -1.29455415910303     -0.18604711651151
  O   3.16475622196612     -2.43584464435918      0.17582648888679
  C   3.33969735586325     -3.52485197407591     -0.67961260510528
  C   4.65029458330990     -4.23465014749585     -0.42490398398340
  C   5.85778051991961     -3.33913503732600     -0.66425406165890
  O   5.99384428249805     -2.29465148168472      0.28171526741621
  C   5.25749037377053     -1.16322343792157      0.02410795737413
  N   5.89872675302186     -0.04540080180395     -0.01863486549607
  C   5.14244536510380      1.09043756626705     -0.23921626396781
  N   3.77486450591057      1.08368933601419     -0.41572520512637
  C   5.80268234216622      2.33209979292709     -0.28336531252469
  N   6.34881689725704      3.35540928518934     -0.32311753940533
  O   2.29835399585112     -4.44172647276456     -0.34840191006925
  C   1.15779878937451     -4.37309081039045     -1.04057467849452
  O   0.94807948228959     -3.72055186943008     -2.01602055468042
  H   3.22942865255381     -3.20324285533609     -1.71906508458880
  H   4.71537694163400     -5.10452200782535     -1.08426715355327
  H   4.65317673541868     -4.58289475440291      0.61013438662900
  H   5.82866564891191     -2.91843894455778     -1.67571267188550
  H   6.76670265245779     -3.93460444127794     -0.57345441913957
  H   0.42406379077622     -5.05029860810267     -0.58399602852519
