23
Coordinates from ORCA-job 17154optt
  Br  1.00689284073057     -0.26669613281770     -0.15028092079060
  C   2.87456741847243     -0.11629967916179      0.00258385902738
  C   3.51399594524662      1.05718177084738     -0.30738380750201
  O   2.81463336806886      2.05434635308056     -0.90264590320728
  C   2.66959734814650      3.31806389132414     -0.26148580686840
  C   3.86692335040213      3.71499985836834      0.57646339244461
  C   5.19462776366983      3.65968616011617     -0.17297259312002
  O   5.75612050660562      4.70842657703535     -0.49725569821281
  C   5.73367313148345      2.33428156072227     -0.35092607346892
  N   7.06922370038422      2.17976757692657     -0.59419896026037
  C   7.57042110303344      0.99082952995152     -0.44488640593856
  N   6.93551993207846     -0.14643645322759     -0.04727868749969
  C   5.63654975701642     -0.02580100795178      0.06188592785190
  O   4.98375380152212     -1.16929341482201      0.38624355166425
  C   3.60641863792983     -1.27171540682495      0.44905581283460
  N   3.09073082704030     -2.35873808849186      0.86154261135807
  C   4.92657095039990      1.16082998893963     -0.16465967828300
  H   1.76139792678791      3.29060011600975      0.35187652330468
  H   2.52262846210847      4.03045045138782     -1.07370920908245
  H   3.91508160567665      3.06326407157045      1.45498375567903
  H   3.72673227261775      4.74230703133920      0.91376344189745
  H   8.63264999895010      0.87387735676318     -0.63914107868711
  H   3.83328935162833     -3.01393211108465      1.09442594685924
