25
Coordinates from ORCA-job 17150optt
  Br  1.44283889557323      0.30394565740562      0.52130460367192
  C   3.33320617324845      0.08638290974835      0.30829749458094
  C   3.84181842479968     -1.16792642584511      0.12401522338795
  O   3.02170402339847     -2.25217797609270      0.10253711572586
  C   3.54971422547176     -3.35861120260391     -0.61760312251417
  C   4.91334708611800     -3.75466471052832     -0.09387169231214
  C   5.88069382889525     -2.57503735438012     -0.09694795148537
  O   7.09995167726599     -2.78951237187689     -0.15582166820961
  C   5.26261989607820     -1.28803033490445     -0.00298164794390
  N   6.01679941943154     -0.13917662383679      0.02427693467527
  C   5.38798708111830      0.99424679230142      0.19844467447713
  N   4.07341859476459      1.19915286236483      0.37154458742106
  C   6.23660949664839      2.24909648262497      0.23291822456909
  C   5.93641288061083      3.14559847883701      1.45577994684945
  O   5.50066045478503      4.39941387350633      0.88861492857864
  C   5.54346264325413      4.21481900405931     -0.44939402713621
  N   5.94204479305206      3.12166725181317     -0.92252103663042
  H   3.61721473716696     -3.08942674942980     -1.67829895860590
  H   2.81259249698394     -4.15389965186622     -0.50500117117351
  H   5.34406122659909     -4.54506555707066     -0.71215682704372
  H   4.82208415006450     -4.14494404396458      0.92530850562377
  H   7.27766355926422      1.93507464644489      0.18424615311763
  H   6.81386702952060      3.34278698132912      2.07038114485323
  H   5.12364501107657      2.74746317457748      2.05925850994942
  H   5.22558219481013      5.07082488738704     -1.03232994442638
