28
Coordinates from ORCA-job 17152optt
  Br  1.20684405287776      0.31590884222452     -0.80231647394038
  C   3.12616458867036      0.19789184969750     -0.52194278573995
  C   3.70963156000240     -1.03512067179574     -0.53061606610207
  O   2.93452686832824     -2.16724419665723     -0.81255913399274
  C   2.17741393265617     -2.80611676662303      0.20364420669749
  C   2.95796450969755     -3.92024376694029      0.99531845611324
  C   2.32501696591415     -4.06653068199285      2.34199914685104
  O   1.79352994394004     -5.06100308749111      2.76291465251033
  C   4.35099422326657     -3.31233820533041      1.08257498411601
  C   5.49996200531237     -3.31119914069970      2.08277218211491
  O   6.36981894550189     -2.37435177008029      1.43785524836891
  C   5.99355541778269     -2.24562212875307     -0.02755478092770
  C   5.18264092556506     -3.50305199422987     -0.19494766657641
  C   5.16344875693067     -1.05967235466758     -0.40551588434108
  N   5.81569265528484      0.15548334920265     -0.45381694856585
  C   5.10790476229303      1.24503094408535     -0.46807591332924
  N   3.75725661607236      1.37718475165867     -0.42418257485207
  H   1.30415493697665     -3.23029197299755     -0.29175497026565
  H   1.83257074139906     -2.05210303440832      0.91991882099917
  H   2.93271946627762     -4.88445530661635      0.48582237372700
  H   2.37245725765744     -3.15325333016248      2.97224358597348
  H   4.11599948527677     -2.25537482269314      1.16578416108384
  H   5.99119862421226     -4.28464913303106      2.20658120626264
  H   5.23096014999375     -2.91827209798248      3.06604108816790
  H   6.95971672105859     -2.19805017598129     -0.52722665582656
  H   5.79208791694957     -4.40602694702662     -0.09512359516104
  H   4.61481053110997     -3.54204401408902     -1.11490019118873
  H   5.65695743899211      2.18351586338082     -0.50893647217652
