26
Coordinates from ORCA-job 17160optt
  Br  3.57391361030332     -1.21299639025106     -1.99844791098789
  C   3.15839714161356     -0.08539221024700     -0.54406805531709
  C   2.00094206784761      0.59939715694751     -0.41474368297537
  O   1.01525733890932      0.51982752619661     -1.36195685274888
  C   0.22637944162068      1.70147345718367     -1.44683478074906
  C   1.03739122718512      2.98179143307399     -1.73555265827898
  C   0.86762085885757      4.14336276971238     -0.74295434152933
  O   1.92837607335990      4.26917147743694      0.19234549686488
  C   1.66246984549095      3.91593531953583      1.52692386793247
  C   2.79802827838640      3.07328488207495      2.10909377393297
  C   2.89963954723932      1.80546721413729      1.31069051719816
  N   1.80815758547795      1.45812292929732      0.59347961045580
  C   4.13233642561329      1.12625161937887      1.25161778508986
  O   5.16109570141541      1.35660674607897      1.86517501995399
  O   4.14131149971600     -0.00457444679262      0.39497533496178
  C   1.44376443717181      5.14575862603793      2.32866998131566
  N   1.25867985221668      6.09212505439915      2.94995543395585
  H   -0.34881098799684      1.82453718098588     -0.52670504206489
  H   -0.46580947083928      1.49175972725063     -2.26227416330396
  H   0.76481344453243      3.35075779568479     -2.72773531072164
  H   2.09945902256972      2.73056407595230     -1.77758448044940
  H   -0.08894805367755      4.05659515078528     -0.21494940440438
  H   0.84696662288410      5.08574417338039     -1.29559426608895
  H   0.74759869564708      3.32183729720769      1.58470290725885
  H   2.58563459983175      2.90194761263063      3.17138714940598
  H   3.74033519462365      3.62264382192162      2.05938407129357
