27
Coordinates from ORCA-job 17162optt
  Br  1.82940499312989      1.71836876457162      0.52768416001955
  C   3.31653480663952      0.76409145899624     -0.13351649230522
  C   3.33648497314754     -0.64589097471727     -0.11811767808776
  O   2.30348367842998     -1.26910895378903      0.53667130801971
  C   2.04486071016383     -2.65055249706186      0.35099732574834
  C   0.53409655691728     -2.76858895485256      0.47749319116789
  C   -0.04636965253286     -4.12671606636540      0.23538869400934
  O   0.56515891082012     -5.11498173102362     -0.07245289969523
  C   2.77710692752692     -3.48855518011528      1.40882428764589
  C   4.20988987560121     -3.03311345058493      1.68062209280479
  C   5.12900081882036     -3.20458615948002      0.48122890823711
  O   4.57586198297130     -2.64225706114816     -0.69668735494627
  C   4.45218383895283     -1.26786293781825     -0.66705735274290
  N   5.48611878931631     -0.64928848388597     -1.21341222509024
  O   5.44115423212479      0.75123398303148     -1.19687466492360
  C   4.38110036991703      1.49973998471952     -0.69606044792260
  O   4.49806786825027      2.70619058049943     -0.79754057215147
  H   2.34279685254521     -2.95894912576186     -0.65014714583022
  H   0.05306083481634     -2.08189015796724     -0.22901953220255
  H   0.20739715176040     -2.42989687105533      1.46799780656479
  H   -1.14952933637572     -4.17935662552395      0.34756858358822
  H   2.75807823869437     -4.53431402069535      1.09356312314302
  H   2.21063452178682     -3.42079494745821      2.34389136387108
  H   4.62272827608295     -3.60981867313403      2.51321649574171
  H   4.20416930956745     -1.98651142249897      1.99162631722008
  H   5.26435968743050     -4.26517269817356      0.25567085794717
  H   6.11016478349526     -2.75741777870742      0.67144185016934
