25
Coordinates from ORCA-job 17177optt
  Br  1.00708489491232     -0.31419358750087     -2.27932011919677
  C   3.31618957142476      0.26866231316693     -1.33573414562750
  C   3.60806329712627      1.44540895419709     -0.76629966697266
  O   2.81874396089575      2.56399127680490     -0.86974278550051
  C   1.62871789496799      2.43923545668768     -0.06447295954613
  C   1.82785787072830      1.71992554523373      1.30464871311332
  C   1.51439834223326      0.22176393981405      1.24883016654379
  O   2.03985782954618     -0.51706610056066      2.38243212091375
  C   2.88317221792996     -1.54677755477997      2.22753200223368
  N   3.81495698471772     -1.74914956358607      1.39448339861162
  C   4.17511438823368     -0.70087236386959      0.55430396466035
  O   3.82005596197404     -0.87048461056809     -0.74152497562124
  N   4.73587978857713      0.34029225491785      1.01322060230068
  C   4.72787594953204      1.48134508158330      0.19319143897822
  N   5.50293429164708      2.47820908612570      0.35093155230662
  C   1.13320773313392      3.80246486878437      0.14724746425641
  C   0.70682426356664      4.90526762075575      0.33921343891223
  H   0.88692726766087      1.88421694199183     -0.65016518971916
  H   1.15508602208445      2.18782008695713      2.02396752932749
  H   2.84030394035747      1.89468973197864      1.66409864079857
  H   1.83358887370937     -0.24852148673111      0.32746428306707
  H   0.43414767122752      0.07712998189331      1.29868779096692
  H   2.70258764136752     -2.29935361489191      2.99187670485895
  H   6.14996440458326      2.26420215374291      1.11016111424754
  H   0.33945893786241      5.88979358785307      0.49696891608674
