25
Coordinates from ORCA-job 17179optt
  Br  1.09523559491445      0.33144310899538     -0.85695815194848
  C   2.95249223849632      0.14085232992769     -0.61449114964850
  C   3.48676397984765     -1.07668596975354     -0.45657981349272
  O   2.78662674819801     -2.23403291072532     -0.54229554195894
  C   2.44439739663449     -2.79104444936858      0.73301777833534
  C   3.35588750008039     -3.93656929263418      1.13546824125711
  C   4.83325584511742     -3.58166475586663      1.21449402850007
  O   5.39935450585873     -3.50152840662695     -0.08792167034000
  C   5.53996886052357     -2.31412138024511     -0.70701784546118
  N   6.21992725044476     -2.17162489138929     -1.75291585538452
  N   4.82662265685627     -1.21062512776858     -0.15148206557088
  C   5.55046342442527     -0.02256369684156      0.15431684512908
  C   6.77499014005205     -0.23229785515909      0.83607430115961
  O   7.18232300332224     -1.35643920726811      1.20572683543681
  N   5.07265018749148      1.18680143355608     -0.11163901313074
  C   3.81208312655028      1.36626620932505     -0.57765296691040
  O   3.35325465286989      2.44989286817517     -0.91618158689837
  H   1.41404383469470     -3.13749664570742      0.64185410563759
  H   2.47130311467321     -1.99524032578249      1.48287003467351
  H   3.23699916253635     -4.76340515542733      0.43074673705657
  H   3.02532834949342     -4.29256886150486      2.11651282375048
  H   5.38158078113051     -4.38213549325926      1.71106656295279
  H   5.01931949275442     -2.65439583194976      1.75659447100213
  H   6.70422391474479     -3.04290141475459     -1.96024705029528
  H   7.34790423828924      0.68508572205330      1.02663994614890
