24
Coordinates from ORCA-job 17186optt
  Br  0.78079253538287      0.11004846712116      0.68945432208360
  C   2.94392400172798     -0.18539422588140     -0.35151167986344
  C   3.60113972381128     -1.37699747155848     -0.21167085145761
  O   2.89886713717577     -2.57837415087479     -0.22054382957090
  C   3.70139798106903     -3.67873728995804     -0.52461932091612
  C   2.84745965850050     -4.92551622936952     -0.33559558186909
  C   2.21879769009672     -4.99382606510690      1.03598791190492
  O   2.29777467408373     -5.95935325542598      1.74866001286301
  C   4.93418581590067     -3.63330374726473      0.39432303611205
  O   5.71044942566734     -2.48390013651829      0.13970782188365
  C   4.99024138085813     -1.32010009414874     -0.01179586773767
  N   5.70829811357224     -0.23981928240672      0.02116148381941
  C   5.07826798342184      0.97049325827130     -0.13232455327346
  N   5.63950471273205      2.12470449828726     -0.13445656378614
  N   3.68491352768194      0.92688973341114     -0.30335506923855
  C   5.79351418873768     -4.80540479877025      0.17499842991941
  N   6.41614480211772     -5.74605711591784     -0.02160335695453
  H   4.07078208677133     -3.62051253268902     -1.55779018447797
  H   3.41757274181590     -5.83550072359903     -0.52018994824960
  H   2.03055431979966     -4.85928438074252     -1.06017777658120
  H   1.66094648012562     -4.09501170426890      1.34905841870291
  H   4.59515969764355     -3.64153142022586      1.43812187290280
  H   6.63633106496385      1.99105307472416      0.00311469259281
  H   3.22798025634217      1.82643559291226     -0.36195341880834
