22
Coordinates from ORCA-job 17187optt
  Br  1.02664080866281     -0.04516414648217      0.04249273514007
  C   2.90004696228595     -0.18794424754626     -0.06855889391233
  C   3.56436798254879     -1.37613207091350     -0.08682043215832
  O   2.84774688118877     -2.55531316390196     -0.03011556456250
  C   3.58445170343951     -3.67000946826780     -0.47176695249695
  C   4.92131665258772     -3.78322393615195      0.25634473581669
  C   5.76531197435150     -2.57361847685057     -0.10801917713447
  O   6.32053232042772     -2.79266546785436     -1.46131663843945
  C   7.40888223114020     -3.53281562579280     -1.54751372000754
  O   7.96062735238210     -4.11148554398041     -0.65035708123762
  C   4.96539387539615     -1.32770487099555     -0.11952194963622
  N   5.64906181414992     -0.15174833300946     -0.15361764139531
  C   5.00715354346872      1.00704317719808     -0.13671344808565
  O   5.45251244121123      2.12862665164926     -0.16490181233068
  O   3.54707221099862      0.98844603448224     -0.06438777457774
  C   2.75344678648805     -4.86244813850352     -0.23712367671942
  N   2.15273958551785     -5.82139170035815     -0.05991154595756
  H   3.76872056154179     -3.59380997262210     -1.55136866958221
  H   5.43244140762225     -4.70654673627217     -0.01578666574535
  H   4.73165274234613     -3.79404490241089      1.33112876874449
  H   6.62487938153591     -2.47489191010174      0.55397323465514
  H   7.75900078070825     -3.55815715131421     -2.58913783037703
