25
Coordinates from ORCA-job 17192optt
  Br  1.98901588953016      0.32586301909483      3.15408211056924
  C   2.87484899907921      0.51149717359703      1.50499148266330
  C   3.53744813884711      1.65055901545946      1.20569956962630
  O   3.44635504137357      2.80992914350474      1.88790794510662
  C   2.88263220317616      3.84379924327238      1.03473090551979
  C   1.40639833481300      3.64480396532760      0.67911918586782
  C   0.99164434646658      2.36631759492784     -0.04457193298655
  O   0.20717329903106      1.56049753102044      0.53544943444982
  C   1.51084130759449      2.09556876937897     -1.36419537220775
  O   2.29096402965732      2.83095321254275     -1.99057065323688
  N   1.07727182582764      0.82489931053371     -1.92144123523204
  C   2.16484249810223     -0.15628494809216     -2.04859151457369
  C   2.99764108273081     -0.08591838528836     -0.78738606728412
  O   4.06565196359437      0.73816296898648     -0.93904282820232
  C   4.41294612408632      1.63784363657577      0.02192640150384
  O   5.37617770424516      2.33448719939577     -0.14128623567146
  C   2.56526033748478     -0.40784378316836      0.44461492766437
  H   3.48100311311992      3.91465205077435      0.12563173845795
  H   3.00420366426031      4.75883021585577      1.61402618778182
  H   1.15086188486867      4.51289580522917      0.05957810579112
  H   0.80398406863842      3.68239271173750      1.58886894209129
  H   0.40523312310805      0.46822302782438     -1.24510474651789
  H   1.73090496108074     -1.14546770953870     -2.19729896161445
  H   2.79450368387602      0.09460813403520     -2.90123146875703
  H   1.72119237540784     -1.06926890298659      0.57009407919092
