24
Coordinates from ORCA-job 17193optt
  Br  1.05766475084643      0.24177814395952      0.38421579463999
  C   2.98122420845875      0.22810732609186      0.21842135560954
  C   3.58088199062944     -0.94973044567512     -0.19198139285570
  O   3.06101569427912     -2.09101393490114     -0.80634494597098
  C   4.17616440271770     -2.93887937911792     -0.89190091943634
  C   4.06827148324364     -3.83134320684555     -2.10417973568865
  C   5.32450003304128     -4.66165438765820     -2.27533662331885
  O   5.29084935410149     -5.38698768938322     -3.52082535323316
  C   4.64918025192271     -6.54703013312920     -3.52938490919122
  O   4.09938774285982     -7.06506257600322     -2.60070269185051
  O   5.33585427969114     -2.10815983244697     -1.00764837996493
  C   4.97178110563841     -0.90850199354151     -0.43294436430216
  C   5.71833971598048      0.18455988955200     -0.17399351625394
  C   5.00153853766323      1.32485646675204      0.35850597524693
  N   3.62039201978175      1.30999059844667      0.51632247232883
  C   5.69765227096706      2.49597431798980      0.68519385723715
  N   6.32199291924490      3.44322241973919      0.94576115665717
  H   4.26998085771737     -3.51169509179767      0.04410507979182
  H   3.92836321196068     -3.19178552759318     -2.97678257815008
  H   3.19614408959482     -4.47726007664746     -1.99377867384191
  H   5.45118434536770     -5.37173325151490     -1.45769566527795
  H   6.19966166837613     -4.02158594909243     -2.34501029473137
  H   4.70139789705340     -6.98486136514512     -4.53465613575821
  H   6.78357716886244      0.22779567796178     -0.34735951168546
