25
Coordinates from ORCA-job 17198optt
  Br  1.06868230142230      0.29679278311622     -0.94012957803170
  C   2.86589738493212      0.28070817270116     -0.34345208183101
  C   3.62608504479881     -0.83740815101798     -0.51001118907291
  O   3.07081694657802     -1.91225400576275     -1.18151850112343
  C   3.15445815073556     -3.20764417642738     -0.78631453895174
  C   2.00635107310550     -3.94551055248657     -1.42107987725779
  C   2.18956659221136     -4.20534192141689     -2.89413124298675
  O   3.18550833498966     -3.99573953668174     -3.52428133620041
  N   3.97343478923310     -3.82929670474723     -0.06518539368658
  C   5.17676195464890     -3.27764598437519      0.53149574323668
  C   5.79868530771957     -2.09082154668220     -0.20357973241480
  C   4.97671469601114     -0.85449174295009     -0.07227506001591
  C   5.43528422628344      0.33404090945025      0.50389018845111
  N   4.75001477532517      1.43731810003141      0.68468568074566
  C   3.42179488744839      1.44358504674466      0.27550508838013
  C   2.66609581399083      2.60434398126093      0.49981113298031
  N   2.04948378310033      3.57044042970632      0.69378579384609
  H   1.07860013282673     -3.37814104155262     -1.30122291469585
  H   1.87937830762197     -4.91491500976119     -0.93441221360584
  H   1.30009406885381     -4.64832846197388     -3.38826508548824
  H   5.89044875004336     -4.10460880756112      0.58610204681211
  H   4.94995805827839     -2.98488442997651      1.56131308663874
  H   5.93860224117126     -2.38554788224355     -1.25291832595314
  H   6.79341619014666     -1.90314579685833      0.20999338968434
  H   6.47286618852355      0.36449632946431      0.83919492054094
