25
Coordinates from ORCA-job 17190optt
  Br  0.47763638356057     -1.52814203402154      1.60112689134665
  C   1.85759990415389     -1.10896025499752      0.38375010734992
  C   3.06179608826472     -1.81325136704581      0.39617896307414
  O   3.07285610814469     -3.07846449031765      0.89263751734304
  C   2.85081090293217     -4.04928938659376     -0.16426776926293
  C   1.40642606503057     -4.52184024113713     -0.35012580721908
  C   0.26820231645839     -3.59147336187970     -0.80952463100078
  O   -0.87608354785849     -3.84602840178393     -0.39883209517099
  C   0.58236219789557     -2.46099413119610     -1.64737455591164
  O   1.64034383873895     -2.37464697587314     -2.33386058765895
  C   -0.30131848301704     -1.23660271463518     -1.53100313729810
  N   -1.54366949122298     -1.13443215279121     -1.75494761005921
  N   0.40883315231177     -0.04126353231531     -1.17072952664348
  C   1.68388197680162     -0.19866215403565     -0.66124024826581
  C   2.84197141426339      0.34013644907600     -1.22931325947191
  C   4.05327102772582     -0.22617294321595     -0.89011090048118
  N   4.15583814742117     -1.34980826300698     -0.17350478215148
  H   3.45026077935826     -4.91054142713499      0.13476044938758
  H   3.24639021399462     -3.64490353752573     -1.09521555536151
  H   1.04060872461360     -4.95200459315320      0.58491959133102
  H   1.46860693024883     -5.34864070469939     -1.06932240111740
  H   -1.89517559623418     -2.05630233242379     -2.00586866747270
  H   0.22152421005379      0.75514600258086     -1.75927122329051
  H   2.77296980356782      1.09174852472260     -2.00508372530347
  H   4.97805693279246      0.16639402340424     -1.29877703669121
