28
Coordinates from ORCA-job 17197optt
  Br  1.30813428983093     -0.58345862787157      3.46183594306801
  C   3.09831207212175      0.06797110960892      1.63198950394899
  C   3.40351126123129     -0.73393268905689      0.55569416775160
  O   2.86441242603301     -2.01313583887977      0.43086130620163
  C   1.47673428647437     -2.04169292353164      0.19093762778964
  C   1.16749326472751     -1.79690240219231     -1.29937427276190
  C   1.30734479843865     -0.32961603184675     -1.66091214794527
  O   0.48729681689637      0.47645820047701     -1.27376993679178
  N   2.33955392012004      0.04869669290907     -2.47023264345276
  C   3.52303814044827     -0.70715887065766     -2.83961645690327
  C   4.46036973213632     -1.15158644127784     -1.68128761388024
  C   4.28541809883286     -0.31649866594786     -0.44452083621757
  C   4.89087439141411      0.93009704069938     -0.30491762086887
  C   4.59911709694238      1.74006911912473      0.78612247409922
  C   3.68718066502232      1.31033232267375      1.74898119785061
  C   1.00328412628922     -3.39448447325668      0.53726371797558
  N   0.60858154498585     -4.45514425112112      0.71576780903538
  H   0.95686908660355     -1.31762779478370      0.82986624878264
  H   0.12378086312637     -2.05198047654011     -1.48376423653341
  H   1.80377379293585     -2.45117097744179     -1.89586398465381
  H   2.42220044496299      1.05423202762817     -2.50640124508274
  H   4.07779647072755     -0.05587689720537     -3.51484806376321
  H   3.23009456666735     -1.58016136371965     -3.42671192534848
  H   5.49011501384116     -1.08966349673367     -2.04013968180309
  H   4.26012080482449     -2.19252132620846     -1.43454425150295
  H   5.58865288624072      1.26741070644118     -1.06501976491902
  H   5.07887018546922      2.70837878776451      0.88117327626729
  H   3.43906895265538      1.94496754094615      2.59343140965780
