16
Coordinates from ORCA-job 171optt
  C   -3.20066006736046     -0.35086076119051      0.00000194446000
  C   -2.44781951806557      0.82882505096270      0.00000037901037
  C   -1.07035441871430      0.73081865097090     -0.00000055916600
  N   -0.38788079046561     -0.42541784359632     -0.00000176233332
  C   -1.08475928602389     -1.58250178509224     -0.00000419782497
  C   -2.53609805039541     -1.59177460254006     -0.00000160704446
  N   -0.37304757838807     -2.73058566856204      0.00000043038148
  C   -1.04072643466477     -3.89544375770078      0.00000187720847
  C   -2.41680325694403     -4.01096560321809     -0.00000068718285
  C   -3.18471323594454     -2.84104341987339     -0.00000345334945
  H   -2.92392348167538      1.80241766307552      0.00000175887648
  H   -0.46553478423272      1.63500865222617      0.00000153287147
  H   -4.28554651878179     -0.32829896292785      0.00000044298059
  H   -2.88025928547703     -4.99061712268554      0.00000144195401
  H   -0.42466000058799     -4.79200014778157      0.00000235745913
  H   -4.26921329227844     -2.87756034206689      0.00000010169905
