24
Coordinates from ORCA-job 17209optt
  Br  1.25886188773082      0.07565215817038     -2.09113242139449
  C   2.94153547986737      0.00747936084296     -1.15272347756363
  C   3.46859341218946     -1.23319002214614     -0.85939956280506
  O   2.75651743738381     -2.36707761115046     -1.19271989869047
  C   2.10725116102744     -3.03771192564647     -0.12203611742374
  C   3.11740527776098     -3.72267300814010      0.81620537651035
  C   4.12086566481735     -4.42130020807308     -0.07041244144637
  O   3.96991329663961     -5.55401080899438     -0.44820178521668
  O   5.15519708361904     -3.69951450610687     -0.49969647198641
  C   5.52063903797049     -2.45028224684331      0.08300953011849
  N   6.59396026507719     -2.44539083608406      0.81213230548081
  C   4.75319972214706     -1.29851219614344     -0.22443331006190
  C   5.28371675937526     -0.02106116315328      0.14939170346612
  C   4.63589255286657      1.13016603751540     -0.18816524209307
  N   3.46776979900021      1.18654966828614     -0.87362361083803
  C   1.20747924497734     -2.17559933294288      0.65422089663703
  C   0.50119717475349     -1.48459363260432      1.33066015223041
  H   1.52154698782075     -3.81545621628480     -0.61536652844508
  H   2.59830855589934     -4.47325978611248      1.40857732111652
  H   3.58480524420741     -2.98796055725375      1.46916634022056
  H   6.99411141356324     -3.37914151214571      0.81941349672147
  H   6.22454875563479      0.00478350150423      0.68004684573577
  H   5.05999218407601      2.09118635214449      0.08408662665775
  H   -0.12230839840520     -0.84608150863794      1.90800027306963
