27
Coordinates from ORCA-job 17202optt
  Br  0.45554441301650      0.36335024748409      0.64308767774559
  C   2.77646421347988      0.04296910188405     -0.30508929827956
  C   3.40606216952023     -1.16333592739271     -0.40354383028155
  O   2.64679541087806     -2.31630795712272     -0.57910860501403
  C   2.09084841296993     -2.86908883879166      0.60689835313481
  C   2.87240895140555     -4.13161930408481      1.03100395961183
  C   4.32231078857560     -3.72385995936842      1.08806208571915
  O   4.87694547077090     -3.34902044553592      2.09693352318721
  N   4.92320052861764     -3.66967295020180     -0.15352725224783
  C   5.65118913241459     -2.46384743016363     -0.46085351711975
  C   6.17578403765469     -2.53083100045399     -1.87992454439120
  O   5.94628285331563     -3.42699561156811     -2.64230457283223
  C   4.82831254538777     -1.17425939744985     -0.33747912056452
  C   5.52284256303149     -0.00271323588737     -0.20426579107290
  C   4.86914116970789      1.27822728205895     -0.12139002464239
  N   5.38500891217757      2.45680836213334     -0.00672164025134
  N   3.48121271708043      1.17257018323778     -0.16903462420925
  H   1.05000245651803     -3.11775066567105      0.39962654080005
  H   2.10921621476512     -2.12623520910472      1.40518909962461
  H   2.71885158886174     -4.92408812472055      0.29530759417787
  H   2.53761175045356     -4.46765088999109      2.01048988986678
  H   4.30276462115378     -3.91690009024524     -0.91205919326157
  H   6.51275997622756     -2.36804274042244      0.20536413077039
  H   6.77445741477363     -1.65269496192962     -2.18194143979757
  H   6.60337126595100     -0.01471284023318     -0.12081864005419
  H   6.39717460996396      2.38558057310370      0.02097161858045
  H   2.97143581132711      2.04112183043701     -0.05987237919883
