23
Coordinates from ORCA-job 17215optt
  Br  7.12264549700601      1.10698904011060     -0.01595159331367
  C   5.29361712771986      1.72051286377450     -0.07286955242646
  C   5.00308316234039      3.03271102190718     -0.36859603730336
  O   3.66042820352465      3.19495134064808     -0.61903376789629
  C   2.83642340624873      2.63805522385860      0.35542391682929
  C   3.17694948438905      1.31860966493246      0.63536991565318
  N   4.38296977748468      0.82056934948777      0.29329626083815
  C   1.85077855803354      3.48961800978133      0.86252072043009
  C   2.10903286519554      4.88525457471588      0.79672308458088
  N   3.42247721906568      5.20495149140485      0.66246181297891
  C   3.73158059160459      6.34035051764607      0.14449453052537
  O   5.01540529573374      6.52500990614288     -0.25688580966582
  C   5.92843418696624      5.49430037671755     -0.36563878869381
  C   5.91925158128041      4.14153552219383     -0.42621479936339
  C   2.79913225903048      7.37895660429814     -0.00279842157372
  C   1.52459588647201      7.04847241129814      0.44324156117048
  N   1.13980079701295      5.83204032563681      0.81410080506387
  H   2.52486666793626      0.68713266921659      1.22756147600745
  H   0.93590560208895      3.10700760350615      1.29083572572932
  H   6.89920468690725      5.96256353615107     -0.45344524446575
  H   6.94051446641197      3.78745638804595     -0.51773338010085
  H   3.05358463724045      8.34849483281546     -0.40171600655033
  H   0.75131804030649      7.81245672571003      0.45685359154644
