25
Coordinates from ORCA-job 17213optt
  Br  5.83183782338596      1.00638586611929      1.64356352149424
  C   6.23387916878947     -0.88035535090658      1.54457257279678
  C   6.61832699955492     -1.54378424927516      2.72297912101774
  O   6.60735847222227     -2.92038637836502      2.68470589126087
  C   5.90825887365952     -3.40576587255292      1.53253689944215
  C   6.58537580099695     -2.74602351427430      0.35127482627181
  N   6.29114763286860     -1.38813203947869      0.34079698577430
  C   7.96305730853518     -3.10223449727822      0.28471128741660
  C   8.97214651434217     -2.17647291882466      0.54483070774584
  C   9.50530313569642     -2.67050098085456      1.77688363096501
  C   9.27795247254208     -4.17953595706573      1.80983680436810
  N   8.38428233861115     -4.39282651189262      0.65723041080466
  N   9.77597723490384     -1.88980216304278      2.76952809090238
  C   9.29747465971161     -2.25044470573144      4.04333850392933
  N   9.70435406772896     -3.18009986278467      4.81862669307941
  N   8.35793539167504     -1.30263477075905      4.47097335465485
  C   7.32523676251371     -0.91419922517173      3.81111896571133
  H   5.94189502535497     -4.48997359501955      1.59050231018418
  H   4.86645459662041     -3.07692657174700      1.58618883448382
  H   8.82492091878352     -1.11682741577206      0.41875775108158
  H   8.80055835997153     -4.48099094158594      2.74578939278641
  H   10.22827610761272     -4.70840770736938      1.70469504636536
  H   7.62419297149729     -5.02216653466174      0.85609798104057
  H   10.46358777734849     -3.67225512494027      4.35188841845967
  H   6.91720958507313      0.05336102323481      4.10357199796297
