24
Coordinates from ORCA-job 17214optt
  Br  1.89111531784559     -3.06507973868091      0.01942276887336
  C   3.51536383054042     -2.12185826397128      0.13970648821361
  C   4.25799989533711     -2.03690365415215      1.26150197494455
  O   5.19793783671606     -0.99250933241141      1.22284367264228
  C   6.01153345955491     -1.20364002054760      0.10315156385063
  C   5.42779402294618     -1.50007411916282     -1.05775252393587
  N   3.99275388786133     -1.50736840150610     -0.98920184728227
  C   6.13974412226482     -2.26307477991433     -2.11648284862691
  C   6.02722524876661     -3.66634548627283     -1.78787951152677
  C   7.01074427910571     -4.28789235875624     -0.95621430801040
  N   6.46710660342442     -5.07820864368497     -0.02596642199413
  C   5.12170934267186     -5.04975535947284     -0.28023733944081
  C   4.80983838512057     -4.28162563120928     -1.38001748748857
  N   4.14231743017313     -5.69294532460814      0.50752025450309
  C   3.76787544513282     -5.22427092405062      1.62192654108984
  N   4.30485908999491     -4.24160701721146      2.45381579338588
  C   4.50100924268895     -2.99467916463456      2.33656262245419
  H   7.06795834620348     -1.30521998824142      0.30181125992426
  H   3.52467777876238     -1.73244739884587     -1.85432019622207
  H   7.13376311948020     -1.88177724051739     -2.33670408471503
  H   8.06838244785201     -4.05228472001369     -0.94042037599812
  H   3.82387788618042     -4.11043921595418     -1.78000337311779
  H   2.95063290848557     -5.74249417318719      2.12811084325919
  H   5.04478007289046     -2.52449904299267      3.15982653521785
