26
Coordinates from ORCA-job 17224optt
  Br  7.14905952283687      0.14030574519730     -2.34468126495715
  C   7.06088337634094     -1.51739616124699     -1.39278983127709
  C   7.17748135168770     -2.72027339864210     -2.04195780670687
  O   6.85925101969321     -3.81107559464399     -1.28021913501045
  C   6.30004877796522     -3.53231779256731      0.00847089403462
  C   7.15904194490136     -2.48931111025999      0.66122597973249
  N   7.37229580808671     -1.44742211022166     -0.05282543639508
  C   7.98409034746305     -2.73645162111214      1.91264214671283
  N   7.44590616981473     -2.48295166609393      3.05356954684244
  N   9.25623322277873     -3.11135220844589      1.63241649010735
  C   9.54785790440122     -3.89099863806980      0.57966630964922
  C   10.19006708354988     -3.47952824336999     -0.57837463281837
  C   9.88029095058317     -4.09255862682191     -1.82392558923935
  C   9.34515175754436     -3.02437517214959     -2.58682215246809
  N   9.91659977640902     -1.85012460243853     -2.19014761764206
  C   10.50752206295043     -2.02658599080555     -0.85182832583034
  C   8.03448109504846     -3.10917845889699     -3.16275996975197
  H   6.25667424627202     -4.47686913732673      0.54507163144055
  H   5.29044869477607     -3.12216585775032     -0.13214371286100
  H   8.13260663854130     -2.69597654971320      3.77874732441118
  H   9.12380978237248     -4.90271247201359      0.53328220885551
  H   9.45677924865246     -5.08337825375852     -1.89582675059122
  H   9.41065181989713     -1.00023447972234     -2.38677866250192
  H   11.58113318243290     -1.81796687900016     -0.86582913899594
  H   10.02207413120404     -1.37949096149626     -0.11975817748086
  H   7.79656008379634     -4.11460975862977     -3.49642432725841
