23
Coordinates from ORCA-job 17227optt
  Br  3.56694738626473      2.73432366785286     -0.41181581111137
  C   4.89279441854153      1.47490108879370      0.08768324085614
  C   6.16831609500790      1.84790102877527      0.43709420089925
  O   7.03077235713959      0.79610434967858      0.71469964554034
  C   6.80296621134917     -0.39762479474796      0.08540540953681
  C   5.39769662254882     -0.73809904904453      0.00009609469201
  N   4.48961790518389      0.18025044612836      0.01355531605096
  C   7.76515132982754     -1.18407052034495     -0.43714490912595
  S   9.50221549270236     -1.14384705599108     -0.61716106757973
  C   10.13958477369004      0.54959401420252     -0.51323358417432
  N   11.39252880578613      0.70569949817281     -0.30505646784838
  C   9.15103774871580      1.57927348346405     -0.58869792313240
  C   9.21803993908243      2.69049649523290      0.21830401061427
  C   8.12878995684055      3.44711871236365      0.66602267058026
  C   6.75085794317827      3.13799408733997      0.64282343041773
  C   5.91154928020425      4.21202078108439      1.06788788759713
  N   5.31974953095082      5.12350346393281      1.45235435861436
  H   5.09853497723246     -1.77229823494131     -0.13509469898682
  H   7.38928556381404     -2.11634519714439     -0.84527540442626
  H   11.86502748431436     -0.18079146257539     -0.14005798211621
  H   8.23726672206639      1.34227924255473     -1.10934300142623
  H   10.19256523251267      2.94996154483574      0.62022670750968
  H   8.36470422304559      4.39065441037716      1.14572787701874
