22
Coordinates from ORCA-job 17228optt
  Br  2.88021611328463     -1.05709416060318      1.59078159193095
  C   4.36097932516066     -0.61074228533136      0.45400297850292
  C   5.60895322171158     -1.22146594337158      0.65178820887618
  O   6.58802989697820     -0.73983274522303     -0.18950907440512
  C   6.34128853742629      0.01138015126502     -1.32060303848422
  C   5.04827532807503      0.60396559498754     -1.36344090474854
  N   4.10775469651536      0.27686684369754     -0.47340874904270
  N   7.28936764975203      0.09892757498721     -2.19780960098646
  C   8.25515894673819     -0.86853488591388     -1.88606980230694
  C   9.41725206725567     -0.72381773702796     -1.23060462653842
  C   9.49256105407910     -1.63505363304632     -0.06581117912788
  N   10.04056758038808     -1.20825412300095      1.05775505847276
  N   9.24343464191369     -1.78841216738127      2.00788334471284
  C   8.21549660461152     -2.43807735076756      1.39775431115149
  N   8.46435093412835     -2.52579041604696      0.11772985399593
  N   7.05407148768994     -2.74965536564985      2.05892030572117
  C   5.93473837338171     -2.18407037621403      1.64401351141699
  H   4.79916465284866      1.28275394424181     -2.16573344014323
  H   7.85386621417211     -1.87726869611049     -1.89866183357772
  H   9.87269324249609      0.24750674798755     -1.08615909751259
  H   9.24324591176056     -1.42587305742221      2.94477670333568
  H   5.06253351963232     -2.46745791405600      2.22340547875691
