22
Coordinates from ORCA-job 17225optt
  Br  2.69031774846526     -2.76647860748894      0.70938826066576
  C   4.27141038676129     -1.73751319077400      0.93162092826670
  C   5.56025425157260     -2.23877581505484      0.98494592513701
  O   6.51512512837487     -1.34958483892823      0.45085194447237
  C   6.41724240609843     -0.09144919477978      1.03830601012196
  C   5.16575737154068      0.46199233580650      1.00662800412599
  N   4.11792973914280     -0.38180086855072      0.75027223926546
  C   7.48547084624300      0.39659455951574      1.89442240664109
  O   7.57355226431054      1.57064236182319      2.25526832103110
  C   8.26362152285185     -0.70123523475669      2.53486315018590
  C   8.62751074340005     -1.80526781436008      1.89609961124224
  O   8.94906975026794     -2.97781775711610      2.55012457536525
  C   8.25371791961630     -4.08752721338536      2.11344030482998
  N   8.53859850022055     -5.24380260330616      2.51221509151318
  O   7.32208512600959     -3.81710296732010      1.19251614879247
  C   5.97365214258792     -3.44652899402023      1.59286292756144
  O   5.34457747650023     -4.20476393021181      2.29184542780643
  H   4.95058547148730      1.46996868018639      1.32328971055723
  H   3.18229916850907     -0.02051171231827      0.67546418250444
  H   8.31150754518903     -0.65066713852783      3.61736441843989
  H   8.64111757563104     -1.88643612724880      0.82254220647794
  H   9.32359691521954     -5.18593392918387      3.15666820499611
