23
Coordinates from ORCA-job 17226optt
  Br  1.65731298807145     -1.25836767379714     -1.14149391036169
  C   3.26354500333410     -0.39136555435624     -0.67156928225829
  C   3.55667595380020      0.87502926489411     -0.97415131006137
  O   4.80911037512455      1.29863744068833     -0.52431788201688
  C   5.81600429877137      0.39258995627762     -0.84928900453120
  C   5.55594833746143     -0.88255807362825     -0.55510701138862
  N   4.25936608553559     -1.20190655089875     -0.10376432899022
  C   7.13886586140222      0.77855063460609     -1.43379722951027
  O   8.03081227312734     -0.09131084551683     -1.30279705109626
  C   7.53889880068255      1.99918584230228     -2.10316790807950
  N   6.99026600782453      3.13804132862504     -2.52733295289665
  C   5.68743626532946      3.31468278354826     -2.70300757447436
  N   4.80592169775735      2.35991598631340     -2.81114754507640
  C   3.50214104265837      2.65429829218718     -2.59204213465671
  C   2.78836966188988      1.87014378887068     -1.73541239404145
  C   1.40701822028652      2.09343008370780     -1.48971693376237
  C   0.23916566939886      2.29517246756176     -1.27510366281284
  H   6.27540328045198     -1.67133891909772     -0.70098970686117
  H   4.03280514018321     -2.18178846818553     -0.08107011591689
  H   8.61602522394575      1.95231724205983     -2.24925137238374
  H   5.36553762642031      4.36539646370009     -2.72321496352152
  H   3.02930749821304      3.53385831998705     -3.04010797927335
  H   -0.79193731167019      2.46438619015090     -1.08514774602822
