22
Coordinates from ORCA-job 17231optt
  Br  5.48997081265247      2.11939143193833      0.46038035726060
  C   5.88044852235948      0.29692932755166      0.79928296346542
  C   7.05286187381578     -0.11937190679222      1.40025147153534
  O   7.00410263304046     -1.49720843433456      1.58461877753250
  C   5.99247710758232     -1.81616164496729      2.48088933945423
  C   4.73531593774935     -1.52524204070830      1.91264582298361
  N   4.77568148819060     -0.54848588330471      0.95262258839171
  N   6.28216661698688     -2.19815633012858      3.67451285942108
  C   7.52240398991989     -1.78355980754984      4.25774310450732
  N   8.16358640757327     -2.82841777128182      5.06513932974527
  C   9.43361820763798     -2.72014043511327      4.92845403466901
  C   9.83055279103083     -1.70819048626966      3.98758596564594
  N   8.66000602680318     -1.22491599363919      3.45088965668672
  C   8.99157543984750     -0.22381644309466      2.56289270741828
  N   10.32198996765099     -0.06844801327060      2.54933015141045
  C   10.84107307399877     -0.97613596036939      3.41550147399913
  N   8.12607082421625      0.51055238728486      1.80828738541153
  H   3.78464351217722     -1.85480855772217      2.29932283665777
  H   3.95786189045715     -0.35819801759938      0.39748780288322
  H   7.25806611348198     -0.98141262389939      4.96496474668230
  H   10.11259650263590     -3.36134061340547      5.47965700218108
  H   11.90393026019163     -1.05686218332432      3.58153962205742
