21
Coordinates from ORCA-job 17238optt
  Br  2.63089220450459      0.77404656160411      2.05800307819314
  C   4.08574932784247      0.42938994967329      0.86702317797731
  C   5.00348933373989      1.44343320089981      0.57498631789362
  O   5.84268084178138      1.14875155094509     -0.46515147594069
  C   6.27140699139619     -0.14490695386861     -0.60818729152779
  C   5.29925542076423     -1.12428171070479     -0.26910577435839
  N   4.19725508202431     -0.79512319743291      0.41191101593160
  N   7.45684740139628     -0.33309135193677     -1.06908620652031
  C   8.21761586211398      0.82764164241001     -1.12049098720560
  O   8.78483000460465      1.25672217775680     -2.07828607564598
  O   8.26502593605616      1.44121724831021      0.12394442592186
  C   8.33706327619849      2.81334310561309      0.08900163780520
  C   9.63104522702627      3.41209192853544     -0.20724696664055
  O   10.67940289889624      2.81714898840309     -0.30450561209209
  C   7.32485766986940      3.65849774694442      0.45712219894158
  N   6.13156619134117      3.58523258849197      1.08928717565835
  C   5.22070435661458      2.65423929695899      1.23923837779987
  H   5.47954816101124     -2.16157051291208     -0.50904506589544
  H   9.59804669482771      4.51476555582996     -0.31009702264530
  H   7.63288036913524      4.69707360656705      0.33868537232831
  H   4.47083674885546      2.87637857791182      1.99399970002127
