22
Coordinates from ORCA-job 17232optt
  Br  4.16326165906925     -2.03155301468474      1.02185570108419
  C   5.68290822423174     -1.15528872579378      1.81133342650660
  C   6.37126922999175     -1.76426096269934      2.86544618338719
  O   7.22906067179434     -0.92937200440301      3.56864869212376
  C   7.06662888623580      0.46422700225758      3.34210088307881
  C   7.19295556623223      0.48363346981545      1.83350625559232
  N   6.09351844820856     -0.06175235710794      1.22986295566834
  N   8.35394009483268      0.61660684462250      1.29477454017249
  C   8.65777745304409     -0.36681184915237      0.36230366887189
  N   9.15301979748255     -1.48702093969237      0.72864176075218
  C   9.64617751902052     -1.70301359931403      2.00391192426407
  C   10.72835956076475     -0.90642295666856      2.42574563182636
  C   11.66203144979860     -0.21434056753703      2.74966757844548
  C   9.19088029238179     -2.75509369827379      2.95780728870442
  O   9.85300810291556     -2.97651175015450      3.95568301058686
  N   8.07761521235532     -3.50960907806534      2.62528859869455
  C   6.87357082789813     -3.07778472177121      2.56843824328578
  H   6.08516830433944      0.79613528719900      3.69187283730078
  H   7.88409679205911      0.96450069443275      3.85272502614460
  H   8.47993284560949     -0.20457952886432     -0.69992216729651
  H   12.47504050351763      0.39808048383566      3.05272468629913
  H   6.13077855821624     -3.76276802798056      2.16358327450659
