24
Coordinates from ORCA-job 17239optt
  Br  3.97075125150542      1.60392550701720      3.03477968364310
  C   5.02912879062331      0.19685092641967      2.37131204795586
  C   5.29019564755467     -0.89654212410343      3.08110133636509
  O   5.97026480904603     -1.93228250325334      2.43938762567658
  C   7.03363049966249     -1.43204212885639      1.70506194231857
  C   6.90547715729521     -0.25611865445880      1.10869119956088
  N   5.62973270984012      0.38713238211247      1.11076935772091
  O   7.98150682895315      0.48511520849758      0.72853690591711
  C   8.87094500844584      0.75201187843107      1.83406580038630
  N   10.11087560594319      0.76196711545554      1.60343423787616
  C   8.16880074114675      0.95678523015363      3.12030085725105
  N   7.23228010814391      1.89968083974415      3.12551337150481
  C   8.36858010184743     -0.10951373331597      4.05202022278573
  C   7.51634264314803     -0.68647866692082      4.94833851908064
  O   6.19130634400259     -0.28636616554556      5.22415204157544
  C   5.18618650764867     -0.93629422064759      4.57297700142042
  N   4.22806853605535     -1.40462957404421      5.24716179044884
  H   7.97483810336038     -1.94286825336720      1.83314001445165
  H   5.76952909749855      1.38077155542654      0.95287063472338
  H   10.28367033936409      0.47351387769473      0.64006383956686
  H   6.75628684186899      1.87942324386148      4.02574642526335
  H   9.31884230983771     -0.62933764024398      3.96797636031043
  H   7.81560194128071     -1.53273981101997      5.55247465344275
  H   3.52815807592722     -1.77396428903678      4.60812413075402
