24
Coordinates from ORCA-job 17261optt
  Br  0.61964366211813      0.33241745914658      0.65875985120278
  C   2.96229389149209      0.01858734377965     -0.29964537075116
  C   3.73660739924409      1.12371727016518     -0.30073232823571
  O   3.32282586019425      2.41501505332449     -0.44613861510679
  C   4.38406725025832      3.26612658481604     -0.03103071143942
  C   5.65634321322061      2.45170207444039     -0.26443426970643
  N   5.11103986662065      1.11208587913815     -0.17202493215849
  C   5.90361069518220     -0.01835568595542     -0.03851887363300
  O   7.13460544795348      0.05649359461346      0.04387971506246
  C   5.09715262348180     -1.18406887237716     -0.02236934964362
  C   3.72882870558121     -1.14661049664375     -0.14717010979516
  N   3.30434779184049     -2.49303979474655     -0.11653883563087
  C   1.99565534358854     -2.90176974526114     -0.26918295039294
  O   1.65606830225460     -4.06134340495350     -0.28142199084803
  C   4.42970673483019     -3.36009687844412      0.02559307789616
  N   4.48547918315487     -4.62602519998671      0.08199217994717
  N   5.50539892707903     -2.50792265487823      0.08733785267295
  H   4.25759274700134      3.49888139304825      1.03019636792171
  H   4.33832435225847      4.18233023760261     -0.61509530965614
  H   6.42540589812142      2.60536321362988      0.48962396603908
  H   6.09387600269990      2.61520885075741     -1.25219850018124
  H   1.30760309786658     -2.05413635711749     -0.36902561044577
  H   3.55246122800915     -5.01633279801773      0.01041348434117
  H   6.45406177594835     -2.82722706608030      0.16073126254130
