21
Coordinates from ORCA-job 17264opt
  Br  1.06271070339115      0.66329113017610     -0.37489377540019
  C   2.85908027818130      0.14045843331878     -0.35099918521351
  C   3.82085278038565      0.99321893814504      0.06039799012089
  O   3.71908026536024      2.25076623154143      0.51639592482361
  C   5.00098020402595      2.65215043795941      0.86534414923714
  C   5.87654964907000      1.68287888237490      0.62139443567552
  N   5.13554879915614      0.63293761404654      0.07411663633058
  C   5.49437973082729     -0.64273601672613     -0.30087708758296
  O   6.80178421998302     -0.86313381640948     -0.28315300265425
  C   7.29932899215501     -1.63908843375830      0.89984300573511
  C   7.24264390782424     -0.80303554959561      2.12244367882361
  O   6.10998291635237     -0.49352988166767      2.62035629685667
  C   8.46913184502499     -0.23590225962055      2.57720758992955
  N   9.47386265194831      0.21742028435601      2.94781660830731
  N   4.63106000621613     -1.50044091430696     -0.69489110706795
  C   3.25772843658856     -1.20497896913862     -0.76353253187648
  O   2.45971837894601     -2.03096912028487     -1.15753624865045
  H   5.09542755931679      3.63370742879655      1.28791442953111
  H   6.93292706541041      1.59325987746613      0.80136163727269
  H   8.30718900048983     -1.92349995460124      0.61042570035351
  H   6.64203260934616     -2.50777434207148      0.96786485544845
