25
Coordinates from ORCA-job 17270optt
  Br  0.96692992313751      0.09946790673556      0.18755373528898
  C   2.83185271499994      0.11238909782745      0.00243167386557
  C   3.56206463645396      1.23607417187728     -0.03662931287960
  O   3.07641705508816      2.50525561372992      0.04464415431121
  C   4.15653700571614      3.40241274185282     -0.24971224523806
  C   5.40655158893640      2.58654695163349      0.07395857794609
  N   4.92109401730386      1.24798574076370     -0.17770724426825
  N   5.78209779295150      0.19805074106384      0.24849460882765
  N   5.15483062038928     -0.93855305253802      0.57915786192272
  S   3.78988108382634     -1.35686466452977     -0.16758748886854
  O   3.97225410290184     -1.57847338658816     -1.58542340153281
  O   3.14685614151123     -2.41030254802907      0.57349248166685
  C   4.08738252097263      3.83407001823860     -1.68941371136287
  C   3.09074878734456      4.86121340658210     -2.09156713701950
  C   4.55519095291261      5.23041710744444     -2.02359786466380
  C   5.28628914786323      5.47286621856518     -3.23620096119076
  C   5.89383018424086      5.66671676246675     -4.25188750168764
  H   4.03603962864441      4.26979474972298      0.40245942979844
  H   5.71703568220242      2.69517822512300      1.11881607442028
  H   6.24634840982050      2.83302715636380     -0.57680935366507
  H   4.32487367491949      3.06127016404121     -2.41072232539258
  H   2.44494712286451      5.26338825823357     -1.32277704317734
  H   2.65257270926693      4.78508682177004     -3.07556973683131
  H   4.85659557958221      5.84317525183302     -1.18239799498586
  H   6.43377891614944      5.82780654581623     -5.15300527528377
