22
Coordinates from ORCA-job 17275optt
  Br  1.07387374550928     -0.23673504037107     -0.02897640120234
  C   2.95610093609570      0.02097822910256      0.02858510164494
  C   3.77818513347730     -1.12995884065394      0.02142912260995
  O   3.23963554040744     -2.40134409864022     -0.09131905507246
  C   4.05598856293268     -3.39158976514362      0.49066865416323
  C   5.44363152408518     -3.43639199465647     -0.15177252514313
  N   6.01050735067571     -2.11579956440271     -0.04899018771041
  C   7.30854199002422     -1.70059626482529     -0.03771268911032
  C   7.30429568453662     -0.31043826267843      0.04243931329588
  C   8.47811882256341      0.53470811201072      0.06832795244334
  O   9.62907248982583      0.14931741440805      0.02656187296837
  C   5.94808253913610      0.12271168397433      0.08368642746485
  S   5.21455260056236      1.70069052836868      0.18421301309706
  C   3.37761068708396      1.35440172831751      0.08712164664163
  O   2.71686984681449      2.38650550701542      0.10250605970817
  C   5.16611733733378     -1.02198299514214      0.02496677869872
  H   3.54563003244456     -4.34321859730745      0.34669346720427
  H   4.16548583757502     -3.19672101281916      1.56453406384492
  H   5.35515482993066     -3.73797572070640     -1.20026542544093
  H   6.07921929794582     -4.15661941779284      0.36895753432262
  H   8.13713957555477     -2.38571452863046     -0.09063007876228
  H   8.26118563548506      1.61877290057295      0.12797535433388
