29
Coordinates from ORCA-job 17272optt
  Br  0.73800716216865      0.38232683895596      0.19276283390819
  C   2.63895256164747      0.20273708073092      0.41262146226999
  C   3.21151555306758     -1.04199058360241      0.40631050993335
  O   2.43338076496557     -2.17569952316827      0.42648322290919
  C   2.62784238359701     -3.03374515250569     -0.68400918305614
  C   3.74150716990916     -4.04475588049796     -0.43346791339476
  N   5.08791818273455     -3.53114879988177     -0.31937797955246
  C   5.73657765090298     -3.09129508681098     -1.55106556217125
  C   7.01822577189338     -2.36791749729865     -1.04703154677931
  C   6.84108102250034     -2.28658400952788      0.47849971242742
  C   5.33168552436869     -2.43850620391504      0.65121091026911
  C   4.61233489151758     -1.13758082237947      0.37363315103474
  N   5.35277469749083      0.03962832220980      0.27269250908070
  C   4.67618240498251      1.16394310186342      0.30234103156935
  N   3.35839466488878      1.36385076278846      0.41029674251803
  C   6.00171084009158     -4.21505399725018     -2.45267308000136
  C   6.21720732113065     -5.12184276087412     -3.20898680365185
  H   2.81409584176878     -2.43761794717247     -1.58320331225651
  H   1.68563002233332     -3.57075573753891     -0.82074286835769
  H   3.73279543195046     -4.79002281116496     -1.23538740796270
  H   3.50251642593847     -4.56489810277748      0.49943946843172
  H   5.11963655432868     -2.36365156233793     -2.09894306366437
  H   7.06376036401928     -1.36785428362997     -1.47419370763254
  H   7.91273820495661     -2.91843047591086     -1.33530913092343
  H   7.20723151480869     -1.34485432925286      0.87676074945015
  H   7.33689130102204     -3.12519720988043      0.96704522187741
  H   5.06122926830144     -2.83651141244416      1.63853213452611
  H   5.27113490594353      2.07487862180108      0.24041919125418
  H   6.41304159677129     -5.92745053852717     -3.87365729205522
