25
Coordinates from ORCA-job 17276optt
  Br  1.17785296992033     -0.64328606442845     -0.98935535356647
  C   2.94373131814367     -0.23456701273474     -0.47510868939003
  C   3.82936462346592     -1.23445569733004     -0.09718313549870
  O   3.57540918018577     -2.57828719694645     -0.19505695852679
  C   4.66660521934794     -3.23170500551677      0.45297854056937
  C   5.85011076152304     -2.25195604355105      0.42085379828431
  N   6.72127366679578     -2.48685246290150     -0.74568775625608
  C   6.69596472282938     -1.81207912758487     -1.95542581425144
  C   7.61743088182230     -2.37359540812219     -2.75725835321205
  N   8.21027810197287     -3.40578258250625     -2.03119396252578
  C   7.64827252111659     -3.49817957791832     -0.77616601524202
  O   7.91162528395088     -4.30517729476760      0.10699198520796
  C   5.11588954042802     -0.95800920916727      0.32963947296154
  C   5.56466248494092      0.35957166851790      0.32912021725992
  O   4.62766141312429      1.37143769422579      0.13265836493417
  C   3.34180347892675      1.13222243372922     -0.33978946120719
  N   2.60560064225205      2.14970521492063     -0.59560440450036
  H   4.87568769083319     -4.16659905420770     -0.06417676718415
  H   4.39137299150355     -3.43325817287719      1.49200950382900
  H   6.48690398042310     -2.38322990537729      1.29635428278839
  H   6.02710280780397     -0.98370274548571     -2.11109712822522
  H   7.90694770688825     -2.13113804943391     -3.76271525812575
  H   8.92252516959981     -4.04014365215848     -2.34118992088898
  H   6.47078181660639      0.72905167660138      0.78270636355212
  H   3.14714102559492      2.99101557502094     -0.41430355078575
