22
Coordinates from ORCA-job 17278optt
  Br  1.14145386371637      0.34985276893982      0.97083497746966
  C   2.91771345216277      0.25723593610920      0.37549567749271
  C   3.71068151192887      1.37587845249842      0.17651459171462
  O   3.36730817637589      2.66837666901709      0.38377755474822
  C   4.48286920999166      3.43076598103988      0.09595789528058
  C   4.31373582151469      4.88935735860036      0.15361990382991
  N   3.67655075163284      5.43560318093324     -1.06454832360319
  C   3.21796328243199      4.81064547429989     -2.15145461737201
  N   2.74675846332821      5.71347982857238     -2.98141579329628
  N   2.92954835088854      6.89704120096970     -2.37310539304429
  N   3.48443139192788      6.74175685534379     -1.22557844405603
  C   5.51272277855901      2.63303118013382     -0.30455930926218
  C   5.04336309181045      1.28893374079154     -0.25959208063551
  N   5.67484224210054      0.13458024710052     -0.53516312182994
  N   4.83822726207771     -0.94153016061133     -0.34409157856384
  C   3.51888200935262     -1.01247230987989      0.09591540735335
  O   2.99070997833849     -2.11949433862106      0.20511629126207
  H   5.28349953559234      5.37630750787893      0.24452145745751
  H   3.68592443323794      5.18996181867088      0.99334162690304
  H   3.24619318483602      3.74284160830391     -2.28741843237178
  H   6.49536517175948      2.96700406568246     -0.59756040984920
  H   5.25425603643561     -1.83915706577360     -0.52860787962741
