20
Coordinates from ORCA-job 17283optt
  Br  0.95642131880012      0.22667197797342      0.15595387674215
  C   2.83677771464164      0.06021582004322      0.03871354268818
  C   3.61121737296787      1.15403160332990     -0.03268349594536
  O   2.97914676284953      2.37314424189538     -0.03372907089381
  C   3.74332408206643      3.49696544630652     -0.13319593353262
  C   5.07199930250826      3.42951066658616     -0.20743396572402
  N   5.76570232020669      2.23759575001848     -0.18190553848945
  C   5.07649309483628      1.13379251467595     -0.09691175142265
  C   5.79102777253441     -0.13739746864392     -0.05016029378417
  N   7.10904786064999     -0.10415598738731      0.00708421149534
  C   7.81909499003363     -1.27285209268858      0.02312277569855
  N   9.09098190847496     -1.29905694805913      0.23566415620920
  C   7.10477632765692     -2.58695243137849     -0.22026081896489
  O   7.70432011908468     -3.61026637221475     -0.46044024724977
  N   5.71940904594518     -2.56201291521373     -0.15138814621727
  C   5.12361177548954     -1.41101862309766     -0.07311662772453
  S   3.37633385552235     -1.58523230874444      0.02297883270234
  H   3.14732105581435      4.39628345061110     -0.13835921366441
  H   5.65705354101745      4.33602966006780     -0.28442757746829
  H   9.38293977889966     -0.32829598407993      0.37049528554548
