25
Coordinates from ORCA-job 17285optt
  Br  1.13141835601163      0.19839604524387     -0.07217747044026
  C   3.07089801898190      0.18586336887900     -0.08399746695109
  C   3.67904779143441     -1.06807756115192     -0.07891087446436
  O   2.93733650231348     -2.22980209322761      0.02117033578151
  C   3.64628942837548     -3.37639492184050     -0.38156061672153
  C   4.98847095276224     -3.44969526981109      0.32607787248248
  N   5.76717327217869     -2.30432621235401     -0.09693566833254
  C   5.09620454395160     -1.06821817008496     -0.05492764579494
  C   5.76415940723566      0.12761470185154     -0.04482570832663
  C   5.03011540587238      1.35148953152628     -0.06675770626566
  N   3.65214227766123      1.33541382808630     -0.08153890138293
  C   5.73790739911372      2.57544808392213     -0.06616863645566
  O   6.96431938867887      2.73096178602885     -0.02856740506257
  O   4.90509395314807      3.70517120883800     -0.10041397201015
  C   5.59065288011718      4.91414138520534     -0.07662700030088
  C   6.08789972867130      5.34084742208480     -1.40509713852546
  N   6.46068640414360      5.73651226750833     -2.41452757479218
  H   3.81288709887544     -3.35533909362766     -1.46571163394163
  H   3.02159478253644     -4.23200993783424     -0.12533163834472
  H   5.50917757867916     -4.36685383089808      0.04349985437475
  H   4.80625691100821     -3.47015721868473      1.41028202769363
  H   6.69284009207548     -2.25194451134785      0.30063138422203
  H   6.84597223814303      0.16487208037296     -0.04933195388339
  H   6.45497867994099      4.87855465714722      0.58930893458639
  H   4.88847690808971      5.67553245416802      0.26443860285582
