20
Coordinates from ORCA-job 17297optt
  Br  1.26034443719665     -0.20909554486563     -0.07088437286926
  C   3.11205726002055      0.06024099679036     -0.06794186844656
  C   3.68168109642304      1.26905149121021     -0.06681337240897
  O   2.92946483956708      2.39370486068484     -0.06728656681788
  C   3.55325960076230      3.65112738329448     -0.06766869250260
  C   2.65930147763754      4.71944364141179     -0.06904061842252
  N   1.93997209009353      5.63162065132560     -0.06978743876364
  C   4.94290565177637      3.73300014280054     -0.06669994525527
  C   5.88621492994747      4.81319357098401     -0.06695373935408
  N   5.81716537343375      6.10161114602155     -0.06812347963135
  C   7.19863821097170      4.09147292547318     -0.06547694919423
  N   7.11437689214625      2.81153235504346     -0.06443361764952
  C   5.71922664529921      2.53822461237518     -0.06525511107562
  C   5.13238263835287      1.31681528292189     -0.06514190983849
  C   5.77353252262610      0.03494096763695     -0.06401079690921
  N   5.20035251897319     -1.11099787739366     -0.06474897444174
  O   3.79739187340292     -1.12873373715034     -0.06709210989409
  H   4.84263917333016      6.40397708888337     -0.06905277833784
  H   8.15050658390791      4.61232569223443     -0.06528261019698
  H   6.85658618413137     -0.01145564968221     -0.06230504799014
