25
Coordinates from ORCA-job 17292optt
  Br  0.96003457150081     -0.07548929670213     -0.15341126562528
  C   2.83699982246504     -0.08824744223361     -0.00233027522824
  C   3.55517808234702     -1.29379005184676     -0.04539746533838
  O   2.87146190132155     -2.49707930392618     -0.07369108360981
  C   3.65992906221181     -3.60048871725757     -0.42253181330152
  C   4.96116480044678     -3.60406318976265      0.35730545763833
  N   5.69876893676213     -2.43260534936959     -0.06497999639222
  C   4.94088492211718     -1.23726878072780      0.01199311600300
  N   5.65180691463431     -0.13161027971836      0.12121859632173
  O   4.91166609475124      1.06446095884592      0.15886245751094
  C   3.52430356666012      1.14206014267998      0.09519759723890
  O   3.05881506622916      2.26564134376029      0.13145272295047
  O   2.94069179868271     -4.75430305676868     -0.11253077778678
  C   1.73153128153289     -4.86062418400278     -0.82706658318733
  C   1.12946264848006     -6.20076824286592     -0.41965445779997
  C   -0.07849729565594     -6.52077358677826     -1.17511154187352
  N   -1.02016954466160     -6.77637208807981     -1.77641556068048
  H   3.87081771527917     -3.56098338006337     -1.50276064633506
  H   5.52226152287321     -4.50684232719750      0.11462308270073
  H   4.70198271587781     -3.61430540840142      1.42501417238542
  H   6.58462214335866     -2.30636988712924      0.40607190429673
  H   1.92365329166502     -4.84067642700627     -1.90636289788210
  H   1.05889833829005     -4.03640631008113     -0.58147366830232
  H   0.89072235728361     -6.18701401001851      0.64441100066890
  H   1.86300928554716     -6.99108112534861     -0.58643207437214
