25
Coordinates from ORCA-job 17290optt
  Br  1.06363827704653      0.10357775334583      0.43661695612005
  C   2.96694200006397      0.04241219157593      0.23680068733694
  C   3.59860136011516     -1.16851143776618      0.09101531080187
  O   2.85413105581408     -2.32133634523235      0.08267614588411
  C   3.54813090582069     -3.48233740335864     -0.06317029938241
  C   4.89231431401885     -3.50025419872655     -0.19468526061187
  N   5.67376520291177     -2.39140434167246     -0.19623830259977
  C   5.00904179698365     -1.22718889666408     -0.05226926858816
  C   5.74850834611875      0.03296729662880     -0.04014921354434
  O   6.98364606005475      0.10906116539305     -0.16369087325120
  C   4.92545704445768      1.21868312231958      0.12667486841561
  C   5.62324807684760      2.54764526336287      0.11945817718223
  C   6.10023096288491      2.94769213028580     -1.27984612481677
  C   4.92149492241920      3.03924559121690     -2.25623201961182
  C   5.32415363062324      3.53659316183788     -3.56990800028697
  N   5.65687959372501      3.94047580064750     -4.59099629984499
  N   3.61515550222015      1.20080801874251      0.25117070171717
  H   2.90850836058008     -4.35125835459380     -0.05999672812636
  H   5.38741585259947     -4.45799129302341     -0.30869289921100
  H   6.50152351825842      2.49177373608484      0.76623612170073
  H   4.93481330885829      3.29984316691171      0.51033323497763
  H   6.81498284812031      2.20538398941565     -1.63619858550464
  H   6.60991929302650      3.91310647353329     -1.24006086752078
  H   4.14791833377136      3.70235497904387     -1.86148487757257
  H   4.45857943265949      2.05865843069139     -2.38036258366266
