28
Coordinates from ORCA-job 17298optt
  Br  2.74264851582658      0.63614384696645     -1.49610781374698
  C   2.87719944943823     -0.71290098637651     -0.14846851593250
  C   1.95696639364246     -1.72884599027768     -0.14346777650838
  O   1.02815960687906     -1.82517536896521     -1.14786941492222
  C   -0.21992452262603     -1.18944000587302     -0.94713962059693
  C   -1.31530658452913     -2.22467285522962     -0.75994946673722
  N   -1.20758824880322     -3.01164691275745      0.45563189774022
  C   -0.20672254163826     -3.99783860148575      0.54133055489702
  C   1.12967909619568     -3.85694026962794      0.88055497022546
  N   1.51455554836368     -5.08830916147330      1.46727023826132
  C   0.48876993640311     -6.01254091746691      1.40949769850197
  N   0.49444459105614     -7.28017682011674      1.65725676731199
  N   -0.59637912367711     -5.29707270653900      0.99790633138728
  C   2.04161138762820     -2.77588557883189      0.83593678421215
  C   3.19449577919456     -2.73662046612388      1.69758441556544
  C   4.09449919487754     -1.69921376680451      1.65480542234405
  C   3.95634287760517     -0.63165348586943      0.75750323427494
  H   -0.42606174078155     -0.57245511471232     -1.82848807514186
  H   -0.16619698059253     -0.52680072804983     -0.07571327834300
  H   -1.29976701320503     -2.91079126516271     -1.60929425626144
  H   -2.28241154716750     -1.70689521446653     -0.75751210331467
  H   -1.18218125123721     -2.38829657176665      1.26444397473944
  H   2.47408145785007     -5.39110658006940      1.46585875365473
  H   1.42269853531406     -7.57233868713519      1.94538999474430
  H   -1.40393297987652     -5.78239312249656      0.64838088283452
  H   3.31742786940238     -3.51441551180186      2.44140732829272
  H   4.92837716164655     -1.69661841368121      2.34859231778018
  H   4.64051513281059      0.20190125619473      0.73165875473747
