22
Coordinates from ORCA-job 17304optt
  Br  1.03207902261306     -0.29483201585307     -0.30781280147057
  C   2.93822809083204     -0.24271093154577     -0.29571096529005
  C   3.62611731947878     -1.32123870108556      0.24139326791206
  O   2.96619343681481     -2.39499561448845      0.76409172578694
  C   2.88204690464199     -3.50240508527144     -0.13896693707967
  C   1.94120547955220     -4.45787549378811      0.48101675151128
  N   1.19494915229242     -5.19680476900610      0.93883876162031
  C   4.21826996559609     -4.10479222781790     -0.42656936598504
  N   4.34015213890541     -5.12758524290256     -1.27679774600226
  O   5.72802013245529     -5.32787441307502     -1.34721451432430
  N   6.42106985916350     -4.39270562543792     -0.55999499567264
  C   5.46145515059558     -3.66380855240430      0.00067693429456
  C   5.78357280902619     -2.45257512306319      0.81891823907650
  C   5.02220310487321     -1.28769378305181      0.25436527458168
  C   5.63169806687020     -0.15779571942480     -0.29283084568073
  C   4.84360298940668      0.85490302360506     -0.81149071600845
  N   3.51166061061181      0.82783379694498     -0.81190916052689
  H   2.40893390511124     -3.16285393440874     -1.07333839135789
  H   6.85487831170038     -2.26524748050571      0.74946700946852
  H   5.53114508105483     -2.59344045361374      1.87429676777343
  H   6.71082978375230     -0.08011313301583     -0.31989156226662
  H   5.29768868465193      1.73761147921004     -1.24853673036015
