27
Coordinates from ORCA-job 17312optt
  Br  0.69178273079141     -0.76369879820065      0.06467402218102
  C   2.59515698532134     -0.46538783220191      0.18650176622380
  C   3.40024198378871     -1.55499583058083      0.36771387429492
  O   2.87795864074123     -2.83674216079664      0.48761794483194
  C   3.08332681231857     -3.63009028864919     -0.66146140421126
  C   4.45033657681441     -4.35344442638055     -0.65081844406261
  N   5.61979640768626     -3.50356447736022     -0.70668386368719
  C   5.75902122809263     -2.76821020068491     -1.95677423932148
  C   5.82089706658732     -3.65017779422327     -3.12354363232457
  C   5.84783522675839     -4.36655826709632     -4.08481730707156
  C   5.71856674336759     -2.57028768092561      0.45523142847164
  C   4.82163913021146     -1.38675572797851      0.41075282169383
  C   5.25483559638258     -0.05095618593549      0.18316112563089
  C   4.35112893469919      0.96414817744376      0.03536006331043
  N   2.98398884473725      0.80967985060990      0.06905773784249
  C   2.02314339337154     -4.65384536226700     -0.70999668972077
  N   1.24969981450515     -5.49778998780736     -0.76989218616026
  H   2.97963839648370     -3.01187284644959     -1.56181904538809
  H   4.47278471497415     -5.05097896722655     -1.49149416005916
  H   4.49507267313432     -4.93523456370130      0.27269612170890
  H   6.68608780748921     -2.19114354674487     -1.89878671757248
  H   4.96046681985785     -2.02738725528963     -2.11121562257799
  H   5.86758267114039     -4.99877458513822     -4.93901384467961
  H   6.75761622037141     -2.23138448885461      0.50129773504305
  H   5.53925266616555     -3.20563168312590      1.33072630249228
  H   6.31683855712878      0.17338937585319      0.13842774676573
  H   4.69630335707950      1.98169555371233     -0.11490153365388
