23
Coordinates from ORCA-job 17313optt
  Br  2.40613372235689     -1.47732985997071     -0.61244512093870
  C   3.30008234277119     -3.10895855770060     -0.32171962847592
  C   2.95408889430660     -4.00528251374746      0.63436766759968
  O   1.91610096244917     -3.76964064846153      1.54132642076719
  C   1.37236068286585     -4.98990839924221      1.95882689837587
  C   0.92088334644391     -5.82024323877962      1.01212249051844
  N   1.34020983743617     -7.17111502579964      1.00691266375940
  C   2.04602300048734     -7.30615492878765     -0.06267567437323
  C   3.30173882278328     -8.01572288197089     -0.32739564648430
  C   4.30595148286225     -7.15316863650572     -0.82402624233540
  C   4.24287425737204     -5.75996701141695     -0.56249359883780
  C   3.61249186184395     -5.25522790986149      0.59640728876324
  C   4.73758580209098     -4.76016032943080     -1.51170942095385
  O   5.47949576696486     -4.94799297851951     -2.46438151914716
  N   4.27200332325952     -3.46694003872229     -1.25068905399595
  C   3.48403723803759     -9.40056177582587     -0.14492880585343
  N   3.63475461727114    -10.53950540127384     -0.01304770195776
  H   1.66972824046253     -5.30708450151210      2.95046487058460
  H   0.70651544242605     -5.35918827298205      0.04615223800350
  H   1.90246209054803     -6.56558159704815     -0.85939579483347
  H   5.12558703235423     -7.54700895853516     -1.41504202854314
  H   3.46196093340632     -5.94183330480132      1.41335377751867
  H   4.58793029920006     -2.77342322910434     -1.91098407916049
