24
Coordinates from ORCA-job 17319optt
  Br  1.01082329957154     -0.18002938386636     -0.29280342807627
  C   2.90313950205311     -0.07730400921532     -0.12168869156354
  C   3.62002916989099     -1.22875554278315      0.08426825474872
  O   2.94355398196239     -2.42053699932991      0.20901647225265
  C   3.68790036010056     -3.53644830717728     -0.22557278703690
  C   2.83546171937884     -4.72514188818159     -0.04978703770124
  N   2.23473718305530     -5.68925678494369      0.10116470173905
  C   4.99375615721740     -3.68117352447929      0.55598740478835
  C   5.84909893512285     -4.85567713192607      0.06833549984772
  C   6.03093999146366     -4.87287722241153     -1.38380479808309
  N   6.14327043513114     -4.91060134755295     -2.52456301408417
  C   5.78677025599990     -2.37476356701012      0.47933195640692
  O   7.02578068376832     -2.41806893795540      0.68252304978505
  C   5.03981569134118     -1.19599308319941      0.21578696876188
  C   5.65946307530189      0.08202134178111      0.12370448411880
  C   4.91502461932746      1.22319528123474     -0.07355607636766
  C   3.52341454221330      1.17758731135836     -0.19630145669516
  H   3.91609375112581     -3.44153375884783     -1.29454407151436
  H   4.73722872730515     -3.89148714076389      1.60122845758467
  H   5.41487809873157     -5.81350662411400      0.36059960857121
  H   6.83172614602820     -4.73763423961732      0.52755968020024
  H   6.73553140671655      0.11790127994905      0.22648765785244
  H   5.41491981697903      2.18322264320109     -0.13442080481641
  H   2.93064245021376      2.06686163585079     -0.34795203071888
