24
Coordinates from ORCA-job 17320optt
  Br  1.21460207725059     -1.38522445714766     -2.25489691818167
  C   2.36306718469031     -0.33369321331093     -1.19898002314557
  C   2.87112639936507      0.84729487731120     -1.63477095992446
  O   2.39266388461283      1.48457702697351     -2.76868327495288
  C   1.39607801262574      2.35147965605054     -2.24892262217625
  C   1.73179863741716      3.47475016533395     -1.61072523357628
  N   0.85004855472120      4.22801405620429     -0.82356083012546
  C   0.85280755297004      4.10974183324927      0.46074018580508
  C   1.69180817728697      3.28402564429522      1.32597263966770
  C   1.03493166969727      2.66447041722663      2.41248135222895
  O   1.46768623360810      1.73659814658601      3.12095027496048
  C   3.02933170146103      2.95134230639425      0.91645269421683
  C   3.27079784610343      1.63564506412868      0.39375580895053
  N   2.77851395799693      0.52063064066322      0.97749187577275
  C   2.46802742834482     -0.63475325338073      0.22777643295633
  N   2.16999938465851     -1.75930875767563      0.74637093184124
  N   3.65600066100413      1.63890403357977     -0.87189170960235
  H   0.40398665483793      1.91509342138697     -2.23087229061413
  H   2.76167369846188      3.80095301264267     -1.69267827298986
  H   0.04580917516095      4.64695134741670      0.96597448559501
  H   0.02457960341026      3.06128169949919      2.62685336364411
  H   3.57008200537577      3.70621623257530      0.36298171672986
  H   2.37642486738563      0.64787294415010      1.91423951707886
  H   2.21815463155344     -1.70486284415254      1.76194085584116
