24
Coordinates from ORCA-job 17322optt
  Br  1.13385269193793      0.07246012417121     -0.32824301371208
  C   3.00707158359815      0.10241082121170     -0.12118322413710
  C   3.69745619888634      1.24010398175240     -0.08220554145391
  O   3.26666453711080      2.53284514895910     -0.09660705345002
  C   4.42079274994391      3.32828018853707     -0.01676389936388
  C   4.27054873322795      4.78836828959378     -0.09155534519991
  N   3.61205183958539      5.37053709923466      1.08808571870997
  C   3.73124311476315      6.81280136433068      1.07714329282009
  C   3.05068946634381      7.43594909003963      2.21692401386781
  N   2.54239343692503      7.94922776464178      3.10639295564470
  C   5.50402003161666      2.52732990145440      0.00206894788933
  N   5.07867607444310      1.23172767264873     -0.05383651801667
  C   5.88617701677099      0.04156553610138     -0.11010492646720
  O   7.11903522641026      0.19245571818607     -0.10074929575169
  C   5.13660419461212     -1.18727787913249     -0.14498135854922
  O   5.63251196408305     -2.31648957237780     -0.09676373079800
  N   3.69736123949101     -1.11367647881060     -0.23213939018750
  H   3.66439535005345      5.06974065450719     -0.96171369536067
  H   5.27773837232344      5.20548460352385     -0.24115648591935
  H   4.02439868176066      4.97937760665278      1.92834840279640
  H   3.26287586780805      7.19408884838813      0.16564308487485
  H   4.77120442878976      7.17532671574247      1.07527176771268
  H   6.55594611615325      2.75380982901798      0.02707340844005
  H   3.28629108336162     -1.89444702837418      0.26405188561132
