21
Coordinates from ORCA-job 17321optt
  Br  3.03292312533604     -3.62420570398299     -0.02781696048987
  C   2.73542007449484     -2.65748104226373      1.56180935859404
  C   3.72499355965691     -2.49493375061838      2.52273021221858
  O   5.06108338567082     -2.77614054948974      2.27608693681986
  C   5.74882248307668     -2.00365870600958      1.38663801802641
  C   5.34666194577344     -1.00449966899022      0.57901894106492
  N   4.04031185898526     -0.54019528858729      0.53894600887672
  C   3.33471820065544     -0.67032966161968     -0.50088354366352
  C   1.84331562689958     -0.46409083360204     -0.44815023516667
  N   1.25500741241457      0.14194072784941     -1.41984990021615
  C   1.16269677984131     -0.85894468000187      0.76093207230826
  C   1.69356697760121     -1.68686955434437      1.71538108483600
  O   1.27509230803553     -1.54294135029886      2.99143971004216
  N   2.24725458780900     -1.78015462791312      4.09254098542172
  N   3.45779902851503     -2.01222808138444      3.71319726706362
  C   7.13327243674251     -2.38948842074482      1.32386159849664
  N   8.24245700863848     -2.67981102911529      1.26087935575166
  H   6.10556250021603     -0.55525964556100     -0.05464929801226
  H   3.74506256270916     -1.02543355744564     -1.45523149412265
  H   1.93744943992583      0.40583376661253     -2.13118681821196
  H   0.26152869700225     -0.31210834248884      1.00330670036249
