21
Coordinates from ORCA-job 17326optt
  Br  1.49090706359505      1.05771832074990     -2.82104796977021
  C   2.58386036706967      1.00427976353222     -1.30523404302626
  C   3.55701529051148      1.88070911733843     -1.00042789680158
  O   3.59773344379755      3.17181380776244     -1.46771635456806
  C   2.72730398641678      3.82406057703692     -0.53381411206418
  C   1.36371810174750      3.75680646532384     -0.81972350231974
  N   0.40764441511738      3.25724536983209     -0.04424462107960
  C   0.64008107657407      2.77126137926297      1.20616968689931
  C   1.46309247943420      3.42125623981032      2.15640311432583
  N   2.06820607026795      3.98295522964999      2.97038553470945
  C   0.44705822284560      1.30846152454400      1.30760159932417
  O   -0.46175442735532      0.64973720587108      0.86252790540133
  C   1.79071287330033      0.74861561481080      1.73657993445113
  C   2.67839077204732      0.30986710062858      0.84039098207268
  O   2.31638177406974     -0.03292776599673     -0.46384683075014
  C   4.09965786801223      0.70352370886624      0.88100010173828
  N   4.48625071219400      1.52621586714439     -0.01875703328100
  H   3.12825253855921      3.80934802641657      0.47061449742503
  H   1.07105790056472      3.89192045964566     -1.85872692996660
  H   2.19721847841283      1.06845402971296      2.68978059134981
  H   4.78521099281768      0.40167795805730      1.66708534593034
