22
Coordinates from ORCA-job 17333optt
  Br  1.50201007448223     -0.57180063716483      2.05007155942925
  C   3.06284983853351     -0.34358721902654      1.01786762907778
  C   3.66107584448545     -1.33582398178639      0.31272605007078
  O   3.04701953343651     -2.42302045093538     -0.20552397386616
  C   1.74683046279486     -2.32513281075667     -0.69825610278781
  C   1.09193419588897     -1.17805793348687     -1.07854480933163
  N   1.66639688396297      0.02484057491769     -1.02271618590817
  C   0.96549516473672      1.11573232254066     -0.75327926364859
  C   1.58782542315141      2.23771708003344     -0.10393138330322
  O   0.99743605963587      3.32212537339301      0.05957015732971
  C   3.00315807984385      2.09031400727972      0.34193903172487
  C   3.63080430354418      0.97942031998851      0.76788966044654
  N   5.04032502070070      0.89648484413924      0.84180035753628
  C   5.63594806185741     -0.22497785684762      0.36226896236630
  N   5.00126734401037     -1.28757535554735      0.01223980886897
  C   1.09481795705209     -3.58159166145482     -0.73337234905288
  N   0.55391947132959     -4.60055520108917     -0.77107054112744
  H   0.02322449152139     -1.29809042406393     -1.28952017360466
  H   -0.12329181294607      1.16087389500518     -0.86659707028830
  H   3.58847188486309      3.00366893622946      0.26740278331488
  H   5.56815254187378      1.75590371369670      0.85220389027355
  H   6.71832917524106     -0.19586753506406      0.29583196247995
