25
Coordinates from ORCA-job 17331optt
  Br  1.15076760209422      0.05820330876477     -1.16073368481551
  C   3.01700480679934      0.15409518249044     -0.78924802845897
  C   3.70166605931866     -0.97090044475843     -0.48504523525497
  O   3.01331227376906     -2.16625254208258     -0.47196850580416
  C   2.25442030185966     -2.44077274818298      0.68894703820456
  C   2.85669073457384     -3.67880907570247      1.34871121066195
  N   4.25964813530783     -3.43689477818315      1.63779766385094
  C   5.16634031239104     -3.50961426902737      0.48529469533629
  C   5.85268933168166     -2.18777836054538      0.11896840632741
  O   7.08678417894730     -2.19984148850289      0.17462576998763
  C   5.12226507248517     -0.98655102785327     -0.24899979737896
  C   5.89386606068285      0.18622965219991     -0.38527008626125
  C   5.46893364832077      1.48975329193259     -0.66982473903419
  O   6.13167430203517      2.51510289531839     -0.76660925154068
  S   3.66355763048553      1.75741029416430     -0.92233920803105
  C   2.11715994874603     -3.99803172392961      2.57066072847517
  C   1.50279779706231     -4.24013275183605      3.57070403492243
  H   1.21605764958048     -2.62406318421358      0.40300521601233
  H   2.29618699682410     -1.59959017513924      1.38357179099006
  H   2.72652319209942     -4.51776164076441      0.64513925595707
  H   4.57313074751982     -4.04769719392797      2.37662560511376
  H   4.64550354551939     -3.91867339934485     -0.38445243163097
  H   5.99673438805817     -4.17308168019956      0.72776439053033
  H   6.95941626972627      0.08401299049781     -0.22712695808508
  H   0.95786901411184     -4.45036113117436      4.45880211992586
