27
Coordinates from ORCA-job 17334optt
  Br  1.42955808613601     -0.57687643087138      1.24674555791242
  C   3.20744204027960     -0.20350497007093     -0.36844233573493
  C   3.90636488468872     -1.28959556008830     -0.81095218688833
  O   3.28627755960020     -2.51648432120646     -1.01664296399356
  C   3.84519629280450     -3.54623337389435     -0.21609694848736
  C   3.92151298442180     -3.29961786200906      1.32788441403159
  N   4.85614221203215     -2.32972524035466      1.85103088800367
  C   6.28236207073026     -2.51704618454531      1.60975571894019
  C   7.10968444741626     -1.22122531601111      1.62157703766272
  O   7.23737746758801     -0.55985568633057      0.35321981366966
  C   5.98310277047535     -0.27439085359024     -0.13551589923670
  C   5.30822559316920     -1.24498018780536     -0.81306875566741
  C   5.30002888345588      0.90834085055893      0.33237746919104
  O   5.79464269825109      1.85322807948527      0.93895919833799
  N   3.93361673860135      0.87031598878307      0.03651339015901
  C   3.01676352079553     -4.74325694891276     -0.43879291774109
  N   2.41411723076286     -5.70868564799854     -0.57084868564971
  H   4.84328068418769     -3.81119067402647     -0.58495483136856
  H   4.15132967519748     -4.27976583815579      1.76070106962977
  H   2.92165683443230     -3.00903404910937      1.65247584660265
  H   4.53527451897745     -1.38796556015801      1.67092853526700
  H   6.49295174123687     -3.03059688177945      0.66280769466305
  H   6.68290496524576     -3.16350202664251      2.39954164979681
  H   8.13260649243460     -1.45290508821347      1.91667050713724
  H   6.68673277411876     -0.51771596891597      2.34731036035400
  H   5.88163861429755     -2.09499730126708     -1.16520844929953
  H   3.42220821866187      1.66526705313027      0.40002482270820
