24
Coordinates from ORCA-job 17344optt
  Br  1.57848065306335     -1.42125920467309      1.44851434989209
  C   3.19235811410876     -1.23939470492710      0.45151782383194
  C   4.38497701173344     -1.52711088390600      1.09469253924166
  O   4.36211051338823     -2.36954361091379      2.17102933177376
  C   4.56339142923565     -3.70102598209336      1.69462569321945
  C   3.59837962994988     -4.28282365762887      0.97642947642755
  N   3.61105545498125     -5.51045738475534      0.33396522262719
  C   2.87297750825311     -5.64065115241362     -0.74077822707511
  N   2.22369470893915     -4.71293818211985     -1.47337450279824
  C   2.76999387196383     -3.49841974510082     -1.52632741182293
  C   2.16812115681555     -2.25422156531730     -1.53831746057524
  C   3.07361736043566     -1.25463782356510     -0.94835353181519
  S   4.44110543749518     -0.81186310083055     -1.90549504680649
  C   5.73706081379447     -0.47176880137847     -0.75650859113558
  N   6.76638309383611      0.20549489011503     -1.07596555321778
  C   5.67886297953485     -1.17160556248983      0.56518826618111
  N   6.75468866609661     -1.46272361247905      1.21037847965602
  H   5.56377028762756     -4.07427221695806      1.86123099295152
  H   2.66690089968150     -3.72925161527881      0.89888959882977
  H   2.71539181983142     -6.67017306039970     -1.06579484616381
  H   3.86395511577246     -3.47471374261141     -1.45683672107262
  H   1.10115936392831     -2.16820059476964     -1.38620481709142
  H   6.69832659770049      0.57521498868271     -2.02274283634353
  H   7.54923751183307     -1.09465367418794      0.68523777128588
