25
Coordinates from ORCA-job 17340optt
  Br  1.16551290563235      0.19076022685431     -0.02839514076365
  C   3.08422120945862      0.15749842706020      0.14797839021442
  C   3.78327945416772      1.31030601929262     -0.10892860450819
  O   3.08875356115990      2.47231225794403     -0.37776616863680
  C   3.74530731928119      3.62701552648287      0.08901060019379
  C   5.17253256854656      3.72500363682266     -0.42863753894760
  N   5.90392056083046      2.55787552851367      0.00142421661623
  C   7.20494928466288      2.62374248985480      0.39405018850028
  N   8.02021693740769      3.61748207691337      0.37417934053736
  C   5.20585342974752      1.32829773926212     -0.18915030622247
  C   5.80257062567912      0.05646172245125     -0.00324729064044
  O   7.10427355827114     -0.33642492660680     -0.37637254577630
  C   7.15550053922735     -1.68184687063053     -0.25089802382512
  N   8.17248805826116     -2.41706249562427     -0.37979829466580
  O   5.93434984076638     -2.16640362841096      0.06034403861688
  C   5.07549338255083     -1.07771656640879      0.19232315187014
  C   3.69549305621846     -1.11961912419539      0.31400396806494
  H   3.76533569983935      3.62304260117300      1.18596985530625
  H   3.15582810259085      4.47776186637863     -0.25267692246143
  H   5.63129895082435      4.61889716725345     -0.00591754159854
  H   5.17061621238107      3.80541795818483     -1.52185426159728
  H   7.57362101020946      1.67173618592878      0.76559361278767
  H   7.59678599689983      4.44992962886886     -0.02972833703841
  H   8.97337389419393     -1.83401705023670     -0.60083581839515
  H   3.14142384119172     -1.99345039712604      0.61632943236921
