23
Coordinates from ORCA-job 17355optt
  Br  0.91176557364780      0.00161973788884      0.21261317123038
  C   2.77348515968266      0.04828429624762     -0.01233676071956
  C   3.54545555908625     -1.08900591182321      0.00681933339100
  O   3.12999241303286     -2.36597186619110      0.17936275487882
  C   4.25447465902382     -3.15336258361716      0.13180374249023
  C   5.36803737358559     -2.40621002526369     -0.09078484700737
  N   6.64919023762806     -2.94908476975946     -0.27641148976984
  C   7.80958418873996     -2.40184362943816      0.18982340686158
  N   8.07450112714264     -1.26232466925718      0.66612610754322
  N   8.93025965186109     -3.28546369135863      0.09779362030343
  C   9.02190627819480     -4.57799404627292     -0.27555435332168
  O   8.12278317616271     -5.30159637401148     -0.65320009188846
  C   4.93527330903751     -1.03567722374189     -0.17880177560674
  N   5.63810465390035      0.07696247453953     -0.39269283049067
  O   4.83079281983220      1.24405482919279     -0.38102451186942
  C   3.45790254972610      1.29084374474046     -0.20632793941690
  N   2.89663583479362      2.44035331405501     -0.22883396573183
  H   4.10873438614092     -4.21178984379664      0.25268028900813
  H   6.70013501665349     -3.92275526652241     -0.54465406400064
  H   7.28127601106458     -0.61985610743643      0.62059986553932
  H   9.77395730279570     -2.81913687797232      0.39470811607448
  H   10.05859106871189     -4.94503946196646     -0.20531120138131
  H   3.61116164955530      3.14799395176491     -0.38439657611617
