24
Coordinates from ORCA-job 17356optt
  Br  1.02384181769746     -0.45261605346403     -0.40914675097813
  C   2.86537637116121     -0.16579718397328     -0.18879714910599
  C   3.71315743415645     -1.20324331429932     -0.08670243494294
  O   3.45538829178576     -2.54478240055098     -0.12348673444953
  C   4.67723777558747     -3.13758202588456      0.02303840951151
  C   4.73391668955564     -4.62232884447131      0.00434509880467
  N   4.32873506639105     -5.20576612739646     -1.26162040396645
  C   5.22346718932624     -5.36614295229360     -2.29124853058728
  N   4.98817629880998     -5.60714139933689     -3.51313088946944
  N   5.64251617431544     -2.31362822687706      0.14388361529509
  N   5.06116067669200     -1.08206890175542      0.08327085803719
  C   5.69477456255054      0.17382771239789      0.15803475187197
  C   7.10152326864358      0.23258665124095      0.32577994917886
  O   7.75300773288300      1.29579420822564      0.39226854447728
  C   4.83321952678623      1.27403327907735      0.05256974885803
  C   3.41781330184277      1.21212352815793     -0.11527849323556
  O   2.66576230151716      2.19031814927281     -0.19829882893210
  H   4.09274417292254     -5.02036109770137      0.79330771384550
  H   5.75961931027664     -4.91584568757562      0.22130465221033
  H   3.36429176206118     -5.05873510380131     -1.52384142363901
  H   6.26127469324523     -5.30903169677585     -1.95997957599969
  H   3.98636074924770     -5.62192944779260     -3.70839585933741
  H   7.61200460462417     -0.74062785367722      0.39587525748923
  H   5.29063022792049      2.25094478925433      0.11124847506388
