26
Coordinates from ORCA-job 17350optt
  Br  1.01660536063020      1.48520704213426      2.82725841056867
  C   2.12521102508862      1.23655710467087      1.25350538633483
  C   3.38498465278943      1.87080872647283      1.25878319269748
  O   3.39567461618538      3.26418838138249      1.36224136085225
  C   2.93729912691028      3.92335557914031      0.17960142260573
  C   1.55517137807053      4.56330514144938      0.33080962749797
  N   0.43216413179792      3.64430940147922      0.42705973231517
  C   0.16797703929945      2.73335846947209     -0.57036082463461
  N   0.42947023720883      2.83714106073602     -1.81107872513094
  C   -0.56873248204553      1.47751670648095     -0.12047565447412
  N   -1.83309284546206      1.41875031952227      0.03930982876293
  N   0.22809825839650      0.38050879123959      0.04313099243105
  C   1.64374674116955      0.52284181686504      0.17437614497154
  C   2.42910136328777      0.06407402716536     -0.88862991615427
  C   3.83601228401549      0.14562626740781     -0.96567204187382
  O   4.58261226425032     -0.31737510842467     -1.81169245405190
  S   4.67148079739003      1.12178261566042      0.36803924048539
  H   2.94187131725042      3.22242107933804     -0.66046843331347
  H   3.65401804104383      4.72017025538302     -0.04053000606722
  H   1.40097891393994      5.24286830620585     -0.51377862923679
  H   1.54646182760685      5.17472708888607      1.23418699845946
  H   0.27940570152345      3.28521488260828      1.35853473685256
  H   0.91993971177435      3.70597645070105     -2.01812473776984
  H   -2.25147555742677      2.31316189204404     -0.19831966922789
  H   -0.23856679097060     -0.48359749366014      0.27292675799362
  H   1.92558288627577     -0.35289880436055     -1.74963274089378
