24
Coordinates from ORCA-job 17364optt
  Br  0.90133298960994     -0.19555774823150     -0.31497179302741
  C   2.75621373842200     -0.09794544052616     -0.02960944627502
  C   3.50423872929608     -1.23842609150356      0.23747153604935
  O   2.89641327986826     -2.45983402404936      0.41024581271687
  C   3.13053167532749     -3.39356425141511     -0.62906282417974
  C   4.38346138355744     -4.21469834798136     -0.36825048760628
  N   5.59901898947555     -3.41744169490386     -0.39868892145357
  C   6.51823588968976     -3.60242021866004     -1.37531007226392
  O   6.44904058361056     -4.43022412341713     -2.25863085421829
  C   5.76293430297684     -2.32975855034437      0.56028893182455
  C   5.61963173325978     -2.86849817349540      1.93060987684604
  N   5.52819600434075     -3.30283617976049      2.98780157135495
  C   4.88337673036808     -1.12868687209560      0.32438515318545
  N   5.58129007546616     -0.00204268704836      0.18864747039304
  O   4.79515789581487      1.15889518048210      0.04800828068515
  C   3.42242315519784      1.15797360397366     -0.16051537773323
  N   2.86285563174399      2.27343175181323     -0.43216927680702
  H   3.19813901751636     -2.87590799808124     -1.59025890453450
  H   2.26656379666344     -4.06111833693468     -0.64601478912784
  H   4.49800306198052     -4.98676813309827     -1.12751988540974
  H   4.29641937787585     -4.68556652249972      0.61489462759246
  H   7.36848722722483     -2.90770111101004     -1.28607731331027
  H   6.78633836338200     -1.95712320469912      0.47554438621420
  H   3.57869636733151      2.99581917348642     -0.47081770091522
