26
Coordinates from ORCA-job 17360optt
  Br  1.13398027766094     -0.36925798972791     -0.80061230753817
  C   2.93912564018819     -0.18346361533067      0.21180634910066
  C   3.71310885941964     -1.33741721227096      0.21625079642340
  O   3.27846755791607     -2.63401949900995      0.40652084465837
  C   4.36241501740886     -3.46907255760587     -0.01414705250389
  C   5.64131723638951     -2.62764942364343      0.15059166481152
  N   6.64850984561076     -2.82672665512670     -0.86643268767254
  C   7.31363788599928     -3.98113870088384     -1.00566206662229
  O   7.08017495035098     -4.99658521203706     -0.37894696903529
  C   5.06417021646529     -1.24302559330984      0.02652241583610
  N   5.77225554773002     -0.15921573929937     -0.26930157229818
  C   5.05805775343358      1.00265530635154     -0.30943843420927
  N   5.55037492455845      2.18290236640362     -0.51879420432917
  N   3.66829259033434      0.96147625235867     -0.05116232950592
  C   3.05343339539208      2.26051683272633      0.10624337738730
  C   3.23103994106756      3.13888243875043     -1.12531321523687
  O   2.88261023073210      2.81428125548761     -2.22525346827248
  H   4.23704266582297     -3.72001903734280     -1.07293817111744
  H   4.35490643723851     -4.37556962667308      0.58454444335664
  H   6.09008900452307     -2.78766944608987      1.13819765563452
  H   6.95966680505231     -1.98732808093677     -1.33865948217388
  H   8.10856326406467     -3.92991008018375     -1.76841969776738
  H   6.54808839018786      2.08623911136462     -0.67436059424924
  H   3.49541733386116      2.77674977673953      0.96263592421310
  H   1.98463708988497      2.11125090184734      0.26324310076988
  H   3.63161713870657      4.14911422744222     -0.92511431965945
