23
Coordinates from ORCA-job 17361optt
  Br  1.03110602514188      1.42518753818142      0.24215670378679
  C   2.72675361001492      0.61511486544731      0.12549016338376
  C   2.83081918075178     -0.75047957492920     -0.06615663679664
  O   1.66674582101286     -1.40659499537017     -0.18810666466779
  C   1.71302189656979     -2.76617539551418     -0.58908319839029
  C   2.24859746883161     -3.66328516240923      0.53242843602282
  N   3.31896102780244     -4.52017825605807      0.12929220405569
  C   4.53155657341602     -4.03720605601961     -0.39633905122481
  O   5.31883607545445     -4.88175474873001     -0.84344739849161
  C   4.85192180399858     -2.63677261515874     -0.33143399577219
  N   6.19292415886219     -2.36874711895252     -0.49129684159027
  O   6.32630796090226     -0.94925480892476     -0.32366367308644
  C   5.14613509762255     -0.44875026413696     -0.12875351238238
  O   5.08531104207133      0.86349427540390      0.02528605651881
  C   3.85278163527299      1.49113665539242      0.21604236450473
  N   3.83489813793116      2.74603485546957      0.42292269298673
  C   4.12641861020975     -1.36359668285020     -0.13306152228168
  H   2.34119496174721     -2.86972429943942     -1.47654242437359
  H   0.68470211335136     -3.00741190152978     -0.85469450415869
  H   2.59193889545188     -3.01193168531328      1.34214157856444
  H   1.44781233561403     -4.27877062280411      0.94395016580281
  H   3.08487651999934     -5.41958143584603     -0.26176935893385
  H   4.78437904796959      3.10824743409168      0.41363841652365
