24
Coordinates from ORCA-job 17369optt
  Br  1.80546801033655      1.08274927612408     -3.35965652018392
  C   2.61576724502365      0.59534833615855     -1.10107923640898
  C   3.33273536993166      1.62220431289907     -0.51357626390404
  O   3.76883387497596      2.72319037935293     -1.21603443232522
  C   3.01327270672097      3.88100549819063     -0.84572433823584
  C   1.49622257005659      3.81372377276126     -1.08867540714084
  N   0.75317035711892      2.82425987247104     -0.31461763656674
  C   0.45569134613787      2.96778588736377      0.99052215415020
  O   0.60109584656687      4.00809105355113      1.60515397293823
  C   -0.19748922380980      1.76857300607975      1.73695284143588
  N   -1.11972559645070      1.94897524075580      2.56699857371908
  O   0.21474053973560      0.49095026328516      1.47611409719602
  C   1.49441875663028      0.43449650432781      0.95589856171237
  N   2.40334254813674      1.13279446507442      1.59258530765537
  C   3.39795794590589      1.65668085145260      0.87840448102061
  C   1.72626774279628     -0.09594359179315     -0.32069368541891
  Br  0.62946034744726     -1.51248218273806     -0.96564039098272
  H   3.40583291189194      4.68811052036129     -1.46547189191143
  H   3.19680665480537      4.12736805172740      0.20373521282793
  H   1.31017321607685      3.59030182840777     -2.13720852189397
  H   1.10152930202567      4.80288273958547     -0.84669612067078
  H   0.58478062975155      1.94287680751360     -0.77929382420356
  H   -1.29913479615217      2.95027140876121      2.62615829288914
  H   4.12578169434015      2.26578569832642      1.40384477430213
