23
Coordinates from ORCA-job 17378optt
  Br  1.32686418612360     -1.48428485275389      0.77270473144632
  C   3.10651984785598     -0.97673495847198      0.40428877007582
  C   4.10123570715182     -1.30543543897178      1.23139295807008
  O   5.39267157802922     -0.88672027396901      0.85621015518039
  C   5.80304178365487     -1.38594187788459     -0.33889464005996
  C   4.99603035644445     -1.33070268871195     -1.39788730893869
  N   5.16254927512133     -2.20256901674010     -2.48314194162363
  C   5.55201157466520     -3.52851571032139     -2.46388511461854
  O   5.85386713276861     -4.08981685407071     -3.48985180410826
  O   5.63388851460382     -4.16124256159949     -1.28555883318580
  C   4.75795879044447     -3.90080702962732     -0.18139258184671
  N   3.49767723189076     -3.80104021147910     -0.36525986111069
  C   5.47307679619954     -3.90558106451891      1.08390514355651
  N   6.69358805103954     -4.40237690238469      1.24614622049684
  C   4.78687061142911     -3.39089959572607      2.27024304087448
  C   4.08433710152947     -2.24045792037474      2.35118279213004
  S   3.50112140483136     -0.36900464161442     -1.19835750614465
  H   6.74134926893930     -1.92792413260887     -0.30801064456956
  H   5.10305869523876     -1.84595772317156     -3.42357046171712
  H   3.25028338566816     -3.83185754769238     -1.35120102467328
  H   7.02291907368995     -4.78567922932953      0.36236075454591
  H   4.92461525901469     -3.98278370790911      3.17175672160492
  H   3.50846437366590     -1.99366606006835      3.23482043461557
