24
Coordinates from ORCA-job 17379optt
  Br  5.05643743485076     -0.14792240307044      3.48880931873416
  C   5.32095852611350     -0.96989546772357      1.79731601083100
  C   5.85198838230111     -2.21198100053553      1.70312843336813
  O   5.87284781133137     -2.87706702296521      0.52064113171398
  C   5.90431912240909     -2.05919246897764     -0.69586302400265
  C   6.35256437110514     -0.68405017217833     -0.33798421161115
  N   7.61588816864267     -0.38922383098295      0.09051311319390
  C   8.61207510480800     -1.24845026962856     -0.03296679910986
  O   8.80499477659434     -2.26935195901498     -0.66043943300767
  S   10.08055172706260     -0.67379415170979      1.10533348214666
  C   10.31589779447326     -2.08318952904430      2.17374660484766
  N   11.44433931429874     -2.62980934382370      2.38900205832449
  N   9.21897234155154     -2.58892849820382      2.87674276147857
  C   7.93472246381337     -2.14520719223160      2.66801348338246
  C   6.80062994271035     -2.86066763162621      2.62464056235740
  C   5.32946373499876     -0.09452119020228      0.60251066972563
  N   4.68907705674390      0.99658536064517      0.51679014218579
  H   4.89154251866021     -2.04015850075873     -1.10633951606603
  H   6.58712334664247     -2.58172847873951     -1.35729179083844
  H   12.14185474059833     -2.22790043137731      1.77199946345510
  H   9.36662650016373     -3.53717207947104      3.19212058852116
  H   7.89138298858527     -1.09647590947198      2.40476800166372
  H   6.78542039835775     -3.93676798219456      2.74273433836732
  H   4.94432143318352      1.45087015328695     -0.36092538966136
