26
Coordinates from ORCA-job 17376optt
  Br  1.17888769601591     -1.12545522742568     -1.86893477955405
  C   2.49107296199465     -0.15902208192347     -0.91357380751639
  C   2.91742600469319      1.09631742607385     -1.35466682657870
  O   2.15349147629241      1.79104013399671     -2.27319468866035
  C   0.99903860223212      2.35250032666029     -1.64202160174079
  C   1.31745516905496      3.61617461402788     -0.81121174286287
  N   0.84860525679601      3.64001655323059      0.58805647134404
  C   1.77770704858814      3.52981019093710      1.64075939123678
  O   1.85001779049958      4.35198914966362      2.52021207400135
  N   2.53244120729609      2.37203924514998      1.55352700956067
  C   3.95253200588165      2.29988203188557      1.57281618942797
  N   4.65450597493553      3.07668708076422      2.27931136295335
  C   4.39578443492814      1.28922913727678      0.53426300797189
  O   4.00102471264346      0.00367197797325      0.91586359038953
  C   3.19341815341238     -0.82068568591440      0.14204720112526
  N   3.09837255580628     -2.05400837166779      0.45475253516898
  C   3.98269787044396      1.73534709928345     -0.75601687395207
  H   0.51462488758237      1.60288646296459     -1.01088116337358
  H   0.32329808132249      2.59514794617425     -2.46186483056003
  H   0.86405141856653      4.47846528593270     -1.30115265274133
  H   2.39505853647578      3.77132847544113     -0.84254643206474
  H   0.25719409942311      4.43405115119877      0.78271985688886
  H   2.13525734684555      1.70472860636240      0.90324227754504
  H   5.62985476544656      2.85559257697805      2.08722426476248
  H   3.66461105346709     -2.22283492027050      1.28307185386993
  H   4.22357088935602      2.74810081522663     -1.04480168664120
