25
Coordinates from ORCA-job 17371optt
  Br  1.32989577769337     -0.29128088031557      2.57742062720934
  C   2.46023079854566      0.29711148323046      1.10071601631716
  C   3.20485884779906      1.39965472971034      1.17607755615236
  O   3.10827655524668      2.31271050638421      2.18857841834723
  C   1.95165548798011      3.13190102113728      2.08233131289491
  C   1.93539835736518      4.01148642433289      0.81230507503890
  N   0.58562889235750      4.04833834003395      0.24898501050400
  C   0.27340168542909      3.20480200886584     -0.62375267362427
  O   1.16554710501952      2.29432444745601     -1.12282442070853
  C   0.72431305573291      1.27083859374415     -1.91830829011193
  O   -0.43761927145741      1.10831202038234     -2.16900462321179
  C   1.87757092224016      0.39027224153998     -2.35147057380658
  C   2.87697325629254      0.20304476294564     -1.23701531858358
  N   2.33560604406855     -0.42434230949087     -0.05637122821232
  N   3.85138129134930      1.11818775069988     -1.13698183139156
  C   4.18138640567344      1.66001214933888      0.04599739291870
  O   5.15613838682007      2.38386539270395      0.26562854434414
  H   1.94572682491464      3.74264260505319      2.98469262975656
  H   1.05521192935549      2.50603060360106      2.08662103576026
  H   2.67098735076756      3.62611751634570      0.10561513124425
  H   2.21375967408296      5.03370970085154      1.06391019229439
  H   -0.72134917821725      3.14038078139161     -1.05001090797603
  H   1.42823348800795     -0.53465097519743     -2.71539611923027
  H   2.39358627692037      0.88991296318798     -3.17377938228185
  H   2.41420003601249     -1.43038187793308      0.03103642635651
