26
Coordinates from ORCA-job 17385optt
  Br  0.79892190147931     -1.46146027030139     -1.11579362798257
  C   2.23214127956930     -0.25867877225908     -0.67370835823811
  C   2.50416646892346      0.75311730744798     -1.54557242306639
  O   1.61460680799147      1.24766202729138     -2.47595945389918
  C   0.47132353667046      1.90272756307750     -1.93133067955898
  C   0.80139718115759      3.02558428610924     -0.95423892082728
  N   0.92237955231683      4.26115627876047     -1.25581964049058
  N   0.91469284768242      2.60920561219896      0.34027295104203
  C   1.31137101055857      3.50621665518245      1.39063742361050
  C   2.75878603329811      4.00800980859159      1.46487377227222
  O   2.97352361385822      5.11622625145859      1.91828899270296
  N   3.78573584318092      3.18518873674316      1.10404808085538
  C   3.72057243625425      1.89276678613153      0.52983342081108
  S   3.93323659338831      1.73404058176852     -1.23163327592791
  C   3.32236369574228      0.80169246990095      1.22198598463353
  C   2.85883107261820     -0.44255606079944      0.61812406596610
  N   2.82107365854807     -1.60468760625827      1.24610710846360
  H   -0.17105732083001      1.16709067230218     -1.43903135673459
  H   -0.05760023081922      2.32442509345018     -2.78491380966817
  H   0.78577436243294      4.38804996517556     -2.25367118707130
  H   1.06154593845133      1.62084526736694      0.48664245589093
  H   0.71798742530623      4.41695667455335      1.33022121497025
  H   1.10018254149919      3.02369626093287      2.34725162231484
  H   4.67200518829162      3.67247184927781      1.08408900361828
  H   3.23885386813838      0.88259972850725      2.30373068281562
  H   3.25218469429173     -1.49134716661033      2.16256595349773
