25
Coordinates from ORCA-job 17387optt
  Br  0.60220505701463     -1.13264075611999     -0.72509776044626
  C   2.16652165053708     -0.09361712633863     -0.47291854011902
  C   2.38811779962455      0.68737210071779      0.59509828644538
  O   1.48157922458141      0.76119416490794      1.63519015963466
  C   1.41263884731372      2.03970165531286      2.24347805631301
  C   1.52161515866067      3.24549899790825      1.30745238149307
  N   2.04466304878658      4.35859564636640      1.64444201721910
  N   0.93518398244259      3.08619606656515      0.07215828620167
  C   1.38777354110907      3.57609893549994     -1.16173188185909
  N   0.61897778501659      3.37396283144336     -2.15129504384354
  C   2.77145562008978      4.22591425926163     -1.29115169449147
  N   3.90528520652512      3.48184139529152     -0.72625954660815
  C   3.64930234214285      2.08693747160796     -0.63442253793512
  N   3.36494728358510      1.62104448323736      0.59738894699141
  C   3.44151191295942      1.33952251322313     -1.82177185826212
  O   3.62352590643788      1.66770405943466     -2.98096813861683
  O   2.98110353014398      0.01640104415825     -1.56157555298969
  H   2.20089483290175      2.15708445662136      2.98977603555800
  H   0.44338831294247      2.06015693606002      2.74825368642762
  H   2.49102755312772      4.26412647724715      2.55350259659107
  H   0.33748986737375      2.27818417533310     -0.04496595752186
  H   1.08942558907530      3.63215303281612     -3.01435333777627
  H   2.92615159819848      4.34719748286756     -2.36423772463410
  H   2.74718528749690      5.21111992079484     -0.82445405350404
  H   4.04602906191253      3.79724977578217      0.22646317573254
