28
Coordinates from ORCA-job 17381optt
  Br  0.34261739890583     -0.48463216474633      1.26700689203041
  C   2.78350003704295     -0.14991251787242      0.68927702255321
  C   3.61154924324311     -1.23153204671701      0.44497714851896
  O   3.54040650139817     -2.39159148293134      1.19162669429861
  C   3.77650599551622     -3.54659591270316      0.42787172345084
  C   5.11215370327115     -3.50984320357393     -0.29128755655816
  N   5.85977938746937     -4.51550064337534     -0.53790589558433
  N   5.43798501368702     -2.26205870311196     -0.72480130552535
  C   4.60870283291901     -1.14922282300939     -0.52873858418141
  N   4.85282481247063     -0.07425527068198     -1.27870502379718
  C   4.03591961262897      0.93454637179254     -1.04718721477476
  C   3.00670395719348      0.95060852679286     -0.10806772262610
  C   2.42588792327100      2.34268162895231     -0.18387221873337
  C   3.50553289540626      3.27714380808727      0.41614524904110
  C   4.64306591082390      3.15152544371815     -0.64581940862061
  N   4.11971140325586      2.22799769564446     -1.70362505424371
  C   2.67925225880655      2.60797633667710     -1.67913008270546
  H   2.98626770470798     -3.67072586144690     -0.32524834396576
  H   3.75260766360355     -4.39577404933794      1.10839610178672
  H   5.45694034234387     -5.35376624711328     -0.12942704502074
  H   6.23863344596828     -2.15064119512294     -1.32893464160249
  H   1.41867462701164      2.45185110568568      0.20748873614116
  H   3.81049331334320      2.95205241081377      1.40897756382300
  H   3.14341305352681      4.30523635076303      0.48209092622080
  H   5.57014731810132      2.74701511082777     -0.24455241102064
  H   4.85927586079921      4.11372028981283     -1.11197079052000
  H   2.10436449436161      1.96019387134010     -2.33828655440872
  H   2.56308328892294      3.65350317083604     -1.97429820397602
