26
Coordinates from ORCA-job 17386optt
  Br  6.51897071322287      1.81047479164042     -2.10763070939649
  C   4.95179167167311      2.53939386782579     -0.44141378014339
  C   5.28399548073312      3.52958020498208      0.37492356241642
  O   5.78699231919190      4.76627433813457      0.01867030374019
  C   4.81117462929015      5.62520617569241     -0.57417601778303
  C   4.34271813975383      5.13518919769107     -1.94832932492480
  N   5.05386750342749      5.15145942059770     -2.98978631966648
  N   3.05787020084474      4.53346055727070     -1.99874947935848
  C   3.14850841577631      3.14363780580918     -2.19493520503505
  N   2.41952451179571      2.34232945012248     -1.53881439889707
  C   3.10347157888395      1.07248644903276     -1.26333440879749
  C   4.04327690483968      1.45450891156462     -0.12666848166546
  C   3.83583927098259      1.14047324380022      1.15586313433444
  N   4.54599547752816      1.80260045193494      2.16471758383525
  S   4.88192106804231      3.43756392453735      2.08199580755126
  O   5.99599704107239      3.64754686653412      2.96908184159245
  O   3.70217174791350      4.22621704492895      2.36217049982067
  H   5.31114287238824      6.58660904179692     -0.69119863798700
  H   3.96666742627522      5.73881924849674      0.11242147282134
  H   5.99198847966291      5.48349334118445     -2.77110777131769
  H   2.51308894288402      4.69567505841455     -1.16024992821567
  H   3.98843496151361      2.86048642157913     -2.83185812455070
  H   3.68750505254080      0.70464703752683     -2.11379533226803
  H   2.38745537692044      0.31458665180291     -0.94680714901452
  H   3.10971375907383      0.40465152886690      1.48180120597821
  H   4.41891645376897      1.50562896823208      3.12120965693113
