26
Coordinates from ORCA-job 17390optt
  Br  1.11031652461428     -0.48638253965539     -0.60392777345619
  C   2.81379380748289     -0.17127662648879      0.29047851310907
  C   3.65080726598427     -1.24096096179468      0.49241055456779
  O   3.10466382326033     -2.50841239323676      0.65049655380360
  C   3.37282342068208     -3.36328459082007     -0.43455118530509
  C   4.70661231349072     -4.10642519672217     -0.40629534880886
  N   4.83777838721635     -5.28490593342739     -0.85552756009691
  O   5.81827535161714     -3.47310346279972     -0.01380083006340
  C   5.77040452291698     -2.39062296495873      0.94721411501209
  C   5.04775903162392     -1.15812361380557      0.50724865412202
  C   5.76481401426051     -0.02137362731492      0.12653723749210
  C   5.20152914899234      1.23898779610719     -0.18270713917346
  S   3.43557303451790      1.44887582793724      0.20236123250899
  N   5.89347476786975      2.23332183326168     -0.63607163887800
  C   5.21969210798602      3.48714529505049     -0.86084578966242
  C   6.11904568769299      4.48453932031209     -1.45189414752440
  C   6.83416830458203      5.31620774532919     -1.93580264370148
  H   3.33121311970261     -2.79734525686168     -1.37203793595915
  H   2.57982350547393     -4.11121274559021     -0.44816644138020
  H   3.93355278257342     -5.63587265463897     -1.15993225912381
  H   6.82086782913164     -2.16882981981918      1.12033798044249
  H   5.33551135263633     -2.78862835779007      1.86714383735766
  H   6.84323604359814     -0.07826079340485      0.03844835570949
  H   4.81967999821862      3.91368738892955      0.07236153345044
  H   4.35252739878209      3.37168535730552     -1.52823674926678
  H   7.48305645509258      6.03957097489622     -2.36524112517558
