24
Coordinates from ORCA-job 17392optt
  Br  0.89827750442713     -0.52164263106154     -0.85615433599828
  C   2.72443808814095     -0.24838214758963     -0.41393550823430
  C   3.50624396754682     -1.35345340503656     -0.01372275021834
  O   2.87463131920685     -2.57442699666563      0.14143074865104
  C   3.14143984508778     -3.48860490742459     -0.89207997396739
  C   4.41174163652963     -4.30341519770385     -0.69607998153832
  N   4.49951394507870     -5.53907313853158     -0.95727007999916
  O   5.54481543564061     -3.66474420595582     -0.35559070591867
  C   5.59129456023129     -2.58845924884047      0.60433368987931
  C   5.18017049893665     -3.15596096585899      1.97324913399349
  C   5.46373784916997     -2.22993561003324      3.06292626489109
  C   5.69817563450172     -1.45778440170081      3.94810604244327
  C   4.87595470090770     -1.31845983508139      0.20448075803009
  N   5.66146357956465     -0.25064534718878      0.11359194616140
  S   4.99731425947559      1.23926669772175     -0.21479022687227
  C   3.22435128823641      1.06169576538259     -0.55335001234496
  O   2.63935993903649      2.08528772453963     -0.87587102754999
  H   3.21796730686452     -2.96006649427393     -1.84883063646223
  H   2.29602620717454     -4.17597307387989     -0.93722065653727
  H   3.59438199176114     -5.88755169368567     -1.26270555347769
  H   6.64784989052526     -2.33202686530307      0.63392320196354
  H   5.72751313525769     -4.08848454725693      2.13040120182557
  H   4.11380411183858     -3.38803687652038      1.96408989653239
  H   5.89853330485927     -0.75212259805119      4.71706856474767
