26
Coordinates from ORCA-job 17391optt
  Br  0.70871010447511     -0.32368169897777      1.11352000912771
  C   2.88334146954533      0.01101259590583     -0.25486757398295
  C   3.53765756382193     -1.19939067143191     -0.51259091181762
  O   2.88728054267854     -2.30001717413431     -1.01563506929980
  C   2.31305979930434     -3.16426182167203     -0.04152346075278
  C   3.19314096293534     -3.40296812076578      1.17284800960313
  N   2.83700415192045     -3.22056101124049      2.36421581408072
  O   4.42706583642720     -3.94557759527222      0.96796934840680
  C   5.05128532860328     -3.84245702865176     -0.30219469562729
  C   5.73508504804467     -2.49339366436103     -0.50271995627177
  C   4.89936841531923     -1.25184204159336     -0.29118473100887
  N   5.57869054332970     -0.16140406958661      0.11479784039496
  C   4.86671156503510      0.93396052239223      0.27628842510485
  N   5.52668752677855      2.10817974811057      0.66098465363427
  C   6.85950673325129      2.25612862316857      0.87156835747297
  O   7.37216479883235      3.30468272418977      1.19795755786976
  N   3.55260453633703      1.07506545310827      0.11008103830213
  H   2.14816938339136     -4.11698923823563     -0.55233643312850
  H   1.36305334575802     -2.75863323449049      0.30175844106246
  H   1.92124075154125     -2.77185022199042      2.38262193262740
  H   4.35090825888672     -4.05986764896802     -1.10660644842711
  H   5.81501116715806     -4.62072820536910     -0.30035049328539
  H   6.14412409800737     -2.46939460454001     -1.51871358854331
  H   6.58138810765746     -2.41311579548285      0.18058461032389
  H   4.93076051839711      2.91246333903765      0.79798423962888
  H   7.41897944256300      1.32664084085092      0.71254308450546
