23
Coordinates from ORCA-job 17405optt
  Br  3.45751937724953      1.90471649545364     -3.57998205067801
  C   4.84726882031701      1.39572203516071     -2.41491749787893
  C   6.14820011809584      1.36651795267515     -2.73325842868719
  O   6.93905669110921      0.97760636950402     -1.67659312020402
  C   6.65311688821845      1.73035160030436     -0.52973497582309
  C   5.36417867064234      1.79145782031056     -0.21819280487753
  O   4.46371900332889      1.19197725251501     -1.12150606902341
  N   7.81376462220391      2.35131567724725     -0.11715263496895
  C   7.86857911471656      3.61289558989229     -0.34245123673991
  C   9.02845470876856      4.37894593900740     -0.92557882945223
  O   9.43191499033690      5.44173990365860     -0.46320197470717
  C   9.08975221094103      3.95842164559042     -2.31335279376425
  C   8.93657999714134      2.66124031453493     -2.81217690679948
  C   9.59993627054935      1.52408086774210     -2.21792537732896
  O   10.48765673357851      1.57545629836031     -1.37984716267634
  C   8.02641320461906      2.45464384317045     -3.95786837914994
  C   6.82155869130247      1.84943664048888     -3.93685313336383
  H   4.90862442727763      2.32153420688682      0.60055215158921
  H   6.94527389932930      4.20563086671979     -0.42932751618201
  H   8.96586139920752      4.79900066292990     -2.99604309570261
  H   9.29460437274387      0.54789901076952     -2.63903093015341
  H   8.29898495399223      2.92393891044671     -4.90336740476639
  H   6.22598083433031      1.83747009663111     -4.84218982866149
