22
Coordinates from ORCA-job 17406optt
  Br  5.60179783476693      1.16174705530147     -3.48732945917315
  C   7.24065602508443      0.01837686859019     -3.01107116589508
  C   6.85330397386508     -1.36325885150561     -3.47685624593255
  O   5.80535209579637     -2.03919178069098     -2.91638988594109
  C   5.48994169866903     -1.57910961312996     -1.59350430341442
  C   6.82489003301622     -1.16691186166823     -1.03242151064791
  O   7.31795561689378     -0.04668257177563     -1.55889614301352
  N   7.54979189043179     -1.95453157856268     -0.34311294681594
  C   8.93456112809554     -1.77431136934705     -0.51704955760056
  N   9.83758260175486     -1.72659472802062      0.35065704750789
  O   9.23726799439862     -1.88024818543665     -1.86979377375015
  C   9.87669967914397     -0.86980626530692     -2.54499440200317
  O   10.41495775898438      0.04646495137692     -2.02419743795240
  C   9.87402685076124     -1.14180552624656     -4.04597070928296
  N   11.01892192708172     -0.91254088083743     -4.60544765032576
  C   8.74192048551912     -1.63607445616868     -4.78165639442164
  N   7.50808913767230     -1.99217764215205     -4.37321542369783
  H   4.78779601458330     -0.74779379119028     -1.63804789091258
  H   5.08236718415520     -2.42890487039482     -1.05419973545506
  H   9.40139749706668     -1.70945382515832      1.26982241867565
  H   10.95106913593201     -1.10459696855559     -5.60651781582920
  H   8.96365343632729     -1.86559410912049     -5.82080701411854
