24
Coordinates from ORCA-job 17419optt
  Br  1.02312893689854     -0.10485893365401     -0.42565947314335
  C   2.90355129136457     -0.14034429045601     -0.22919652726135
  C   3.63664801875534     -1.28662987555048     -0.13970871621742
  O   3.11827125504390     -2.53660505201776     -0.17518993772529
  C   4.21172152268010     -3.45566800769929     -0.04959744243398
  C   5.48592684235702     -2.61984895305281      0.06335026371223
  O   6.60427379411148     -3.13509342274089      0.18220612690790
  C   5.05722047445307     -1.25891179558812      0.00117943274663
  N   5.80068274249936     -0.12394790198727      0.06355734465076
  C   5.06389466979236      1.00866933049722     -0.02661772269430
  C   3.66606455617279      1.05310800131569     -0.18403391590552
  N   3.27005536299320      2.35930034482901     -0.25121190426314
  C   4.37501262907761      3.17018435264240     -0.10405321543624
  C   4.31123048298849      4.64949111106772     -0.23483511500477
  C   3.08428798287489      5.36512475769250      0.25218601452074
  O   2.03646872245826      4.86268821324296      0.55675356951418
  C   5.48770043759035      2.37444810012051      0.02143465491216
  H   4.23161770446947     -4.10309630740316     -0.93044646417399
  H   4.05501355782269     -4.07175747501091      0.83996110131658
  H   2.31770830548957      2.67895961512158     -0.18543574511696
  H   4.39119498372079      4.97530449445785     -1.28738887187917
  H   5.17581148964845      5.10320928773324      0.25777965217729
  H   3.18962825536103      6.47028301903362      0.27342849709872
  H   6.50588598137661      2.71899138740642      0.11553839369828
