23
Coordinates from ORCA-job 17410optt
  Br  1.14260009218437     -0.16198125322756     -0.09842583176519
  C   3.02764372854833     -0.06323548585636     -0.06613535207072
  C   3.77033265882190     -1.20809300479009     -0.06290510676167
  O   3.24433149719031     -2.46034041564036     -0.07852263439799
  C   4.32784827081847     -3.39249909927655     -0.08194889119099
  C   5.61781339210033     -2.56820540396543     -0.06973522377320
  O   6.74313009604763     -3.07798626977641     -0.08272446554187
  C   5.18863717154259     -1.21742194813861     -0.04820366132736
  C   5.83989669402186      0.04382840595582     -0.02640062485256
  C   7.26998582496828      0.38702440596597     -0.01589584316205
  N   8.31364691476518     -0.33292761951579     -0.11388893262354
  N   7.31823428062655      1.77582831684686      0.12981082656546
  C   6.01350951272258      2.39228224134876     -0.03741053097872
  C   5.09657557304643      1.20052682893151     -0.03624868194669
  C   3.69197301948580      1.21061621322128     -0.05381288339463
  C   3.01090989206405      2.44687464013263     -0.06813860126560
  N   2.51638713640605      3.49219134924965     -0.07909096822777
  H   4.26493604914392     -4.01541971743511     -0.97742315566795
  H   4.25784435317094     -4.03051714656408      0.80245320302623
  H   8.04474123700906     -1.31525036427502     -0.17849993754525
  H   8.14516924047112      2.23080917010185     -0.21894516264023
  H   5.92405460071252      2.94555191771516     -0.97972408601712
  H   5.77679876413167      3.08534423899189      0.77481654555941
