23
Coordinates from ORCA-job 17411opt
  Br  0.48163774610983      0.37341523414347      0.27636997740545
  C   3.09036419002775      0.08996619340414      0.21030554634749
  C   3.76373168283408     -1.06411789044401     -0.09399164364145
  O   3.09434152470528     -2.27553955373357     -0.07033240415514
  C   3.74151162254750     -3.28802903035580     -0.78291736455763
  C   5.20193066152381     -3.36517472080783     -0.34391729944769
  O   5.86320951596764     -2.16753540654093     -0.69978427752438
  C   5.14191863711839     -1.02574374075994     -0.39584897417774
  C   5.83850440809212      0.16819437289379     -0.41474384060732
  C   5.14026583881724      1.33356222157069     -0.11908352797093
  C   3.76555560063344      1.30513403444004      0.19787485464228
  C   3.25518891814778      2.62726968139843      0.46104517888039
  C   4.19718956014543      3.58429282320530      0.35064601758362
  S   5.76215790898791      2.95760558619694     -0.08008897790779
  C   5.89293419613118     -4.49161440064169     -0.96935863049253
  C   6.41337130189929     -5.43969093621157     -1.48283906911336
  H   3.71597786406413     -3.09520149954569     -1.86246421265305
  H   3.22572290447930     -4.22255601902361     -0.56775467889560
  H   5.22237354316436     -3.48516915222991      0.74675295825275
  H   6.89313629245850      0.15893573371109     -0.65502877420180
  H   2.21553000326273      2.79570607102933      0.70383703830871
  H   4.08033698420599      4.64714888315935      0.49122996258053
  H   6.88510909467583     -6.27485848485784     -1.94090785865474
