30
Coordinates from ORCA-job 17427optt
  Br  1.40191693593944     -0.09393271901470      1.95030833052213
  C   3.08233715427098      1.28152323157268      0.91968552920145
  C   2.76813062031453      1.80527460357864     -0.28421188477153
  O   1.97378139912560      1.14995728690032     -1.20019734520441
  C   0.78219477641703      1.89649765602286     -1.48166370460868
  C   0.02562290589173      2.37894571415882     -0.22767591477864
  O   -0.62408175794739      3.63082216169628     -0.43331293540095
  C   -0.09446552532604      4.83569787494725      0.10470424781084
  C   0.25277086640583      4.83155737403319      1.61911388481348
  N   1.50039012709953      5.59618254741251      1.78808678030168
  C   2.26585687760728      5.35879951607295      0.54487001675570
  C   1.18303359849980      5.40356844719472     -0.55366028744193
  C   2.94987875546090      4.00837633181406      0.62954253524665
  C   3.23706857593941      3.41840251020978      1.79797059159562
  O   3.59124796824404      2.10772515531501      1.87409378071152
  C   3.12475170045078      3.18759695356667     -0.57520923446211
  N   3.40479197155358      3.69124791592544     -1.72715514806005
  H   0.16485519438484      1.22417260845564     -2.07564037382566
  H   1.02229261172945      2.77149880358754     -2.09340897591657
  H   0.70847766737883      2.41107213253375      0.61607487461270
  H   -0.75370042750066      1.66458533510485      0.03587491291026
  H   -0.91383499361780      5.53540745663369     -0.06795138238636
  H   0.40518180541023      3.81265556182118      1.97505153081938
  H   -0.53821814659318      5.27406772512789      2.22354885401915
  H   1.27298333822316      6.58391016106736      1.82722658557834
  H   2.99750779455762      6.15770770844915      0.41021674177896
  H   1.45182682839684      4.88848152537815     -1.46875107031094
  H   1.00896455948385      6.45318119109759     -0.80373303839363
  H   3.15849689519653      3.89764833091636      2.76324472488651
  H   3.41493992300322      2.94036889842021     -2.41904262600284
