22
Coordinates from ORCA-job 17423optt
  Br  1.14255852654040      0.54390346233234     -0.11749291563836
  C   2.99893606141663      0.25166717261397      0.15695048443394
  C   3.79740114817084      1.30796211251733      0.58692041404003
  O   3.40781236560309      2.63929673980918      0.51123431406483
  C   4.59055420754165      3.35632288188353      0.12547479517191
  C   4.67732567223355      3.32750802651800     -1.38645607099822
  O   5.35650965863219      4.08934232051271     -2.02323407135948
  C   5.77180464156546      2.59522939135079      0.76258476544126
  C   7.06243399413515      2.30709370747867     -0.01423504415209
  O   8.00821228562098      1.62315901129105      0.79432947309331
  C   7.20658232622678      0.83015808479584     -0.10186129257425
  C   6.00727143637749      0.19433354847139      0.50684331241580
  S   5.31203564273952     -1.34066920042642      0.08835982205498
  C   3.50913928044672     -1.05165354378033     -0.10028193556920
  N   2.80158172310327     -2.06215133300246     -0.46054151383117
  C   5.14408203141539      1.22743186583150      0.85779313947330
  H   4.49579828837743      4.38911294520887      0.46237852856905
  H   4.06417885474127      2.54205471740785     -1.86787605273129
  H   6.03455615993270      3.02996463428374      1.73327877621054
  H   7.46980424360382      3.01772663467515     -0.72540202620992
  H   7.76447257578703      0.33050078586651     -0.88521243173598
  H   3.38294887578858     -2.88029396563922     -0.62455447016902
