24
Coordinates from ORCA-job 17428optt
  Br  1.09213563561572      0.06149002655292     -0.40206407369200
  C   2.96383496222876      0.03690419994780     -0.19780054462464
  C   3.65578414342778     -1.16138554430780     -0.01939615819314
  O   2.95312887618892     -2.33869069765783      0.08929612193301
  C   3.57428225238084     -3.43620512943347     -0.53548556384099
  C   5.04750328358631     -3.63418543805807     -0.20962271240624
  O   5.59077362082418     -4.67259226122354     -0.49856117735884
  C   5.76282748275461     -2.46252192932009      0.41963157034225
  C   7.21261208561927     -2.35499506238731     -0.05644580441206
  N   7.80036089408169     -1.14450229330778      0.49009534621172
  C   7.15409321079828      0.08663438409025      0.24361005058679
  O   7.80458816918632      1.14517991973976      0.24444210352968
  C   5.75138494061511      0.00713507258967      0.03986284078279
  N   5.04414326833079      1.17824685954783     -0.16447952138745
  C   3.66519697430940      1.29189431149147     -0.27595216549116
  O   3.15446810172493      2.39727397123192     -0.43643873694647
  C   5.03010419235207     -1.19402384565317      0.10414928438609
  H   3.51199462436225     -3.33482237937797     -1.62680294774032
  H   3.02862555043769     -4.33261818327576     -0.24290361953236
  H   5.77233102240278     -2.64474950511440      1.50612413072096
  H   7.20849239595039     -2.35384853835004     -1.15557821125096
  H   7.78328343536289     -3.22107485627455      0.27641291144715
  H   8.79440076631762     -1.04594380082591      0.34123062867651
  H   5.57465011114135      2.03840071937611     -0.18132375174034
