24
Coordinates from ORCA-job 17430optt
  Br  1.85636656486617     -0.66689372817781      1.78098179066847
  C   2.91470728478036      0.76739553806043      1.10708454317502
  C   2.74477983707196      1.24218175013926     -0.13414211083456
  O   1.83626938124734      0.72487253816154     -1.01805919224583
  C   0.88934001295741      1.62342189202756     -1.62534141862216
  C   -0.24121348487968      2.08062417508383     -0.67447380415839
  O   -0.48159692466034      3.49626035993278     -0.59544354139202
  C   0.48255163110395      4.08427435538391      0.18615941312496
  C   0.29867319125475      4.60328156354952      1.42693093166301
  S   1.87642459811093      4.77679931560381      2.17559790701170
  C   2.61069448239293      4.02581415827671      0.74956990976325
  N   1.74488106546054      3.92265944735742     -0.24665241791122
  C   3.79557493643881      3.25982008688562      0.69825597704296
  C   4.27653867735590      2.57408834986365      1.84225468402959
  O   3.83024633566629      1.20241578997130      1.97876173624278
  C   3.67914679388506      2.34836610757908     -0.49157810454238
  N   4.23877803681658      2.49470428444119     -1.61904486584429
  H   0.47036495663804      1.02176325832305     -2.43213275520805
  H   1.39609257680360      2.49211640894206     -2.03952260691128
  H   -0.02245350485277      1.69906193846444      0.32899714075585
  H   -1.19252785407333      1.66226088615138     -1.00337565479526
  H   -0.61893397419427      4.78966904711825      1.95548172582908
  H   4.32263356869155      3.02102264889006      2.82593606467970
  H   3.94966181111810      1.73301982797082     -2.23924535152095
