23
Coordinates from ORCA-job 17436optt
  Br  1.09554370111822      0.24977647150976      0.43155976788782
  C   2.88256821531925      0.13846531514246     -0.15902850534116
  C   3.65963694550543      1.24767495622221     -0.38977293032058
  O   3.33104398414958      2.53559831279490     -0.04064091544940
  C   4.54447096502755      3.29915242451707      0.01620408644624
  C   4.41266656748744      4.44921704937522     -0.95041858653936
  O   5.21802571950581      5.33768573813605     -1.04807523001015
  C   5.72050561121354      2.37730573947793     -0.39510299134247
  O   6.61627318441665      1.92909639981863      0.64111492936010
  C   6.99566062173055      0.58550143588929      0.26047589240667
  C   5.78872667258327      0.00905854032331     -0.45707767225673
  C   5.01120579116486     -1.12139228325573     -0.15790841827346
  C   3.59630253252196     -1.10877270643084     -0.11118462534740
  N   3.15816650638692     -2.34897604773287      0.19179183214126
  N   4.17284274545993     -3.14824348586810      0.35204734964038
  N   5.29462042813891     -2.40935714006730      0.14817623755638
  C   4.99336365717742      1.15103346440830     -0.78289299019681
  H   4.68348939578261      3.68394141099975      1.03039503371511
  H   3.51129623711714      4.40394304475160     -1.59078825720994
  H   6.33247685656424      2.86521715682593     -1.16289509723375
  H   7.24640092604433      0.04008163717467      1.17356847100845
  H   7.89620893585449      0.65196064614841     -0.36433143867753
  H   6.19250379972978     -2.85596808016065      0.19478405803637
