24
Coordinates from ORCA-job 17432optt
  Br  1.20829815716677     -0.48224617757280      1.54768589609558
  C   2.99487296640486     -0.15280212566521      1.00216844018929
  C   3.72765671873728     -1.21591473609598      0.45746030736001
  O   3.18636760538833     -2.48364611173527      0.34263142716638
  C   3.42917209748044     -3.07585744830194     -0.91139362764176
  C   4.80542265924647     -2.79834197515341     -1.51241602833681
  O   5.02666968726375     -2.96186270998286     -2.68702121045115
  C   5.82173427404543     -2.21681872595530     -0.53458006879412
  N   6.98877410738158     -1.60071993387917     -1.17027792696006
  C   7.08965706010350     -0.19324274873179     -0.70473389465217
  C   5.79020395011212      0.07206035774397      0.00076518971741
  S   5.14231220024606      1.59329389498683      0.52813867153996
  C   3.47641330220026      1.17359618703489      1.16088620983189
  N   2.81746156556491      2.14895840465016      1.68438718003311
  C   5.04294855976905     -1.06963772975052      0.05869732537192
  C   6.17817041470389     -3.25170196243822      0.45080750395899
  C   6.40895829523412     -4.12165339602856      1.24292574031303
  H   2.69643053815781     -2.72667475242281     -1.64557412937868
  H   3.31727138539431     -4.15623371674723     -0.78946538405679
  H   6.83441264271930     -1.63527265835684     -2.17191940311863
  H   7.25120856785844      0.46855706763153     -1.56352324928324
  H   7.95970871265645     -0.08014639373200     -0.04645650347266
  H   3.36104446241993      3.00782867092646      1.67622297681730
  H   6.61683006974484     -4.87252128042389      1.96558455775116
