27
Coordinates from ORCA-job 17438optt
  Br  1.11568065365531     -0.29294292573852     -0.47854734123705
  C   3.01043766843154     -0.18765013189076     -0.21457769211193
  C   3.72069451729004     -1.33052245044556      0.01160343712847
  O   3.07663347669259     -2.55158959118864      0.12541329080891
  C   3.43034890241760     -3.48272817376987     -0.86987279872028
  C   4.66942293900914     -4.30604010123698     -0.47334766836802
  O   5.87780554657635     -3.60895812911138     -0.46884410486140
  C   5.87194633956481     -2.51192789185985      0.50373724093501
  C   5.13401529376760     -1.30693012054857      0.08541395022368
  C   5.78086653443206     -0.07226468986714     -0.22788260043452
  C   5.05087509646358      1.07254476252886     -0.44757484937170
  N   5.76029292272946      2.26386553299917     -0.72385940953621
  C   5.26428395314051      3.41080071760024     -1.25049586217076
  N   5.89771360577218      4.49436216639807     -1.51033512882883
  C   3.64076930012391      1.07689198335065     -0.39204002068150
  C   4.80435516695986     -5.43433851766471     -1.41138511546103
  N   4.85947885155511     -6.31157728423767     -2.14747019217686
  H   3.61297566115654     -2.98402592317541     -1.82576516232432
  H   2.58585191653375     -4.16732977504853     -0.97558691119772
  H   4.46658884165613     -4.72905417628338      0.52289257433371
  H   6.92733713232106     -2.28435111183791      0.64761757536479
  H   5.47557673104456     -2.94667945480932      1.43436611058096
  H   6.86368523505555     -0.04012466901262     -0.30739842525984
  H   6.75439987920211      2.22830597867846     -0.55745193257242
  H   4.20322245323600      3.35936031897873     -1.47857857742509
  H   6.88280704899015      4.40713267903353     -1.25498986585637
  H   3.05993433222240      1.98577097815912     -0.36704052077967
