26
Coordinates from ORCA-job 17439optt
  Br  1.14566140141579      0.01019139986678     -0.21243093478403
  C   3.05743214962780      0.00690068187921     -0.03676366557285
  C   3.69367895159791     -1.17505990035228      0.20538860719545
  O   2.99001862650939     -2.34936010349183      0.37086599542382
  C   3.26815061014534     -3.32381830360909     -0.61317753788958
  C   4.48492977417026     -4.18891354746016     -0.26252674649093
  O   5.72215527525987     -3.54069352059484     -0.31167016816124
  C   5.82774015083328     -2.44277270068202      0.63541010099398
  C   5.11247472591371     -1.21003063287355      0.24942981567736
  C   5.76020575814115      0.02985870725886     -0.02657449800105
  C   5.00236636332065      1.15365822838012     -0.22951999147250
  N   5.65019560048550      2.38056548401088     -0.49019340942476
  C   5.05260162199448      3.56043716535923     -0.76172780831493
  O   5.67280239618495      4.58670911292754     -0.99836768134975
  N   3.65159777247468      1.21020315380976     -0.20620241136001
  C   4.57082268421001     -5.35212896555038     -1.22423166598601
  O   3.66923956607459     -6.11580671029762     -1.44022296219168
  H   3.41764228949139     -2.84501886570998     -1.58649633014014
  H   2.39975613979772     -3.98185170344142     -0.66407262794998
  H   4.30487651281369     -4.60128035967233      0.74410879176243
  H   6.89698011446896     -2.24654152580721      0.71392334307906
  H   5.47544132906985     -2.84528253390771      1.59852063323312
  H   6.84280379384023      0.09155784624788     -0.06524022566670
  H   6.65886875175178      2.38602464928286     -0.49550495683413
  H   3.96001090995886      3.49353257846571     -0.74554295208569
  H   5.54954673044804     -5.45007963403839     -1.73218071368926
