23
Coordinates from ORCA-job 17434optt
  Br  0.84672833823946     -0.11511636185048     -0.18450589084929
  C   3.05070853907279      0.00971549621603      0.50493524329821
  C   3.85357609646548     -1.10494993054755      0.36259754894019
  O   3.54993869328447     -2.40685432576363      0.70074281195163
  C   4.59046997993377     -3.20497238820377      0.14057314078782
  C   5.79985414168906     -2.29095516489095     -0.08663865859921
  O   6.71646673222000     -2.30585465626120      1.02183031703753
  C   7.51465868919235     -3.36369898087708      1.10270733005786
  N   7.53879702791532     -4.36993874125553      0.24405351901012
  N   8.48922166241656     -5.15654154748922      0.73489783059379
  N   9.07449604873308     -4.74786179019941      1.83374651966804
  C   8.47735473256489     -3.59911247293022      2.10629013812186
  C   5.13469535009010     -0.93845532950648     -0.12266362665409
  N   5.70744602911941      0.17225044265109     -0.54272507308324
  C   4.94551068356703      1.29986776543366     -0.46530290766644
  O   5.28930065487834      2.41747302569849     -0.82358543999555
  N   3.65166600035633      1.14614219348764      0.09751082154718
  H   4.25194574870351     -3.60208122654477     -0.82129772046189
  H   4.80772363579630     -4.02820764025780      0.81894534652042
  H   6.35097574757489     -2.52582322818798     -0.99602868212727
  H   8.73879786817423     -6.02071668386481      0.28839001177858
  H   8.73753206772542     -3.00105858596749      2.96108164658153
  H   3.12813553228701      2.00975013111151      0.14344577354218
