28
Coordinates from ORCA-job 17449optt
  Br  0.51170019153726     -0.30725121652621      1.26248078360493
  C   2.15999156529311      0.34708677783540      0.51296205141755
  C   2.99654642178660      1.10981606784663      1.21036457663388
  O   2.68026557757859      1.60115439921326      2.44663054551167
  C   1.86495867885933      2.77248551224414      2.41920270470261
  C   1.78284573017742      3.51983431298563      1.09462795717817
  O   0.88346478324930      2.84883902236140      0.23341345682565
  C   0.66919822563378      3.42129747941328     -1.03141033177357
  C   1.81952141790013      3.31321371754250     -2.04111123286462
  C   2.23839526154164      1.89399323527147     -2.48517605289644
  C   3.05469376444095      1.12681424719367     -1.47949143139196
  O   2.30770531185777      0.08814638808110     -0.78685603372276
  N   4.04150951951096      1.74942342328370     -0.84071890350171
  C   4.19569033351757      1.64305560447082      0.49585254460092
  N   5.19457812499080      2.07849298430312      1.20865420887749
  C   -0.55490482014268      2.70965320724633     -1.57400654863292
  O   -1.16455343662419      3.07498862382165     -2.54299056030461
  H   2.28161397377473      3.45031200110577      3.16717138240157
  H   0.84685591366427      2.49629392445893      2.71422846302129
  H   2.77265617896726      3.61760050652961      0.64139405144752
  H   1.39408653618575      4.52717443072563      1.30424834577003
  H   0.40856861978148      4.48601728071367     -0.92077134328515
  H   2.70303208846240      3.81332526418645     -1.63870793063241
  H   1.48865057693849      3.88110756210699     -2.91620719884587
  H   2.84803007705365      2.02873852144712     -3.38369807405165
  H   1.37049237708593      1.29972810123301     -2.78149239637624
  H   5.88419401778489      2.45240213788916      0.55661302458807
  H   -0.84178701080724      1.80525648301572     -1.00420605830142
