21
Coordinates from ORCA-job 17442optt
  Br  1.16335786171779     -0.20980756220849      0.64442602942828
  C   2.99379217168431      0.12829384417352      0.29439769130854
  C   3.47339711782967      1.41955847910919      0.27548451222593
  O   2.60570760134358      2.40567108839362      0.57663538872996
  C   2.54864268796725      3.52903034496631     -0.31338449895526
  C   3.51681730304792      4.64155506531079      0.04576146143391
  O   3.07210780822564      5.80364046586170      0.11628071133781
  C   4.87013978355409      4.27357702118757      0.20634823528679
  C   5.43371350677262      3.00299873290558      0.09385095874811
  C   4.86861312906382      1.70401236085266      0.01675209277538
  C   5.70471305247828      0.58999221338435     -0.23209636606965
  C   5.20162849279042     -0.70337046503666     -0.20113441290335
  C   3.84839196965487     -0.95560234992705      0.06613897209214
  S   3.61216908303636     -2.64126426220282      0.01647722851358
  N   5.24965558942797     -2.92468984814755     -0.33731504089771
  N   5.92681639975274     -1.86459424497369     -0.41630261071489
  H   2.73731407561224      3.17884767266403     -1.33432747561419
  H   1.53481004450736      3.91727044987736     -0.24309461333448
  H   5.55070303420917      5.10288881113699      0.36605414586246
  H   6.51976942426329      2.98642199952292      0.06692114492715
  H   6.75873986306056      0.74157018314964     -0.42387355418052
