30
Coordinates from ORCA-job 17445optt
  Br  1.00156405320472     -0.14609720208523     -0.37540105523900
  C   2.90298591849673     -0.14960233452632     -0.12069265251252
  C   3.54187895180890     -1.34219893965061      0.08092266864719
  O   2.82256109410428     -2.51846781811535      0.11915434674970
  C   3.22526599449932     -3.47407275644742     -0.84708353952302
  C   4.34648238249407     -4.38001989279419     -0.36683061220241
  O   5.60551816597877     -3.76184472404016     -0.27241366370738
  C   5.66054204255364     -2.63279507072209      0.65053921572126
  C   5.23794887896226     -3.07277495434634      1.99443913471090
  C   4.90099254820522     -3.38348967848926      3.10656870824656
  C   4.96681932205651     -1.39983844695155      0.19654458410655
  C   5.66128005610896     -0.18055027499840     -0.05006279633197
  C   7.15087347061726      0.03620724907044     -0.02414467968259
  C   7.31091111227449      1.44079935233331     -0.63563674460943
  C   5.96623312661992      2.14811714650411     -0.38884497575444
  C   4.99594969894988      1.00331349855204     -0.25334203172684
  C   3.58783516615567      1.08539805900275     -0.24178094131444
  H   3.51820848175955     -2.96713586880334     -1.77237180525724
  H   2.34447298920491     -4.09173746852969     -1.04395091673136
  H   4.46753470540744     -5.19401992380388     -1.08700983587699
  H   4.05412940711079     -4.81152143045233      0.59911657721218
  H   6.72843821075014     -2.41692714291624      0.70696924137207
  H   4.58068677192402     -3.62384199366214      4.09058712843545
  H   7.70720020204434     -0.72165648082245     -0.58679057144815
  H   7.53360967626815      0.00289700561683      1.00628906490827
  H   7.47087113345392      1.34237763304537     -1.71178730846910
  H   8.16303979772982      1.98799239180957     -0.22506556673992
  H   5.70372406116307      2.83621525690360     -1.19819007847127
  H   5.99103264414194      2.74156332722717      0.53465424875466
  H   3.05040993595120      2.01671148209183     -0.34038514326672
