28
Coordinates from ORCA-job 17450optt
  Br  2.59121167121607      3.86708177888277      2.85394954377269
  C   2.44776898846386      2.62920933146025      1.38808032488665
  C   3.53880914616581      2.56112594982417      0.50682464777674
  O   4.06921345519673      3.72794296967853     -0.01487764895634
  C   3.26995223713444      4.27447431705254     -1.05806638413761
  C   1.84470284170441      4.65456539699372     -0.61574814684807
  O   1.65730911407341      5.63316047497722      0.06452493216183
  C   0.72224103836868      3.83071214580140     -1.21270338858308
  C   -0.67719331164545      4.09273715570968     -0.65125527817523
  C   -1.17940416570194      3.08676975756427      0.39342387437426
  C   -0.49746965331376      3.16666932865877      1.76933218881897
  O   0.27029085243865      2.00837688439448      2.09968864642696
  C   1.33899252130368      1.80610029985985      1.26249997781096
  N   1.13699755385348      0.85884884398956      0.35638703061710
  C   2.06583028587649      0.43484102430062     -0.51660714248696
  N   1.83030587965601     -0.43297633613150     -1.43184091558637
  S   3.77945483493536      1.09963799998744     -0.40256861590775
  H   3.22498019218826      3.56085083761818     -1.88839413024437
  H   3.77121499881991      5.18859194010995     -1.37726273017612
  H   0.98778970978111      2.77064793242806     -1.17120554161805
  H   0.75172447226442      4.08319031268513     -2.28186949284083
  H   -1.38616876900646      4.08594949753921     -1.48244641306621
  H   -0.69607729295082      5.10177627593925     -0.23024037583985
  H   -2.25005750550926      3.26059043884438      0.52958921987417
  H   -1.06713957491688      2.06788759246131      0.01734226456880
  H   -1.23944019381746      3.22835004035908      2.56515682476387
  H   0.12894813392676      4.06107155446707      1.82754448421455
  H   2.65821253949433     -0.58318374545573     -2.00125775560069
