30
Coordinates from ORCA-job 17458optt
  Br  1.62234108310521      1.93760704087038      0.14887848981459
  C   2.87303115680759      0.48389322072968      0.11964247538349
  C   2.55950497162195     -0.69858248429638      0.74004021881071
  O   1.30703141404293     -0.91054439627729      1.29618808730460
  C   0.29342903964501     -1.24369166034136      0.36849980593271
  C   0.55904674242510     -2.54091079835262     -0.36390706114540
  O   0.54557076602384     -3.61751927427529      0.56079279941858
  C   1.55723531134693     -4.57177071087579      0.36485771764024
  C   1.40264351699076     -5.59692925335007      1.48154479842238
  C   2.43952238449348     -6.67638845688885      1.35145894522186
  O   2.91678970767845     -7.28055649900422      2.27544175742984
  O   2.83306825136743     -4.03764348232867      0.31410377178802
  C   3.18071372615793     -3.05530509084937      1.39580236153394
  C   3.52868337513212     -1.72887238561018      0.87422360549582
  C   4.83316854507349     -1.46849595754316      0.32235501308741
  C   5.12371947414267     -0.27766724717508     -0.29339047154966
  C   4.16709545918172      0.74683823900376     -0.42443736605061
  H   0.16600929015882     -0.44381278999027     -0.36863869435719
  H   -0.62329927797808     -1.33066856394270      0.95522784222367
  H   1.52866244997090     -2.48369148629539     -0.86433684263292
  H   -0.22242754903433     -2.69675820233997     -1.11769214071727
  H   1.41831871990387     -5.06576053536345     -0.61090561787842
  H   0.41289540669727     -6.06199880007242      1.41535600473945
  H   1.48735894343441     -5.12460887455348      2.46006600278330
  H   2.74576119345769     -6.91738604445414      0.31405404471899
  H   4.03301458526012     -3.52173146972324      1.89553835727551
  H   2.33078311509864     -3.00615198671308      2.07339176561521
  H   5.59482442223675     -2.23631076915196      0.40746476845034
  H   6.12058024224471     -0.11537676646506     -0.69161627421879
  H   4.36292353331249      1.66179548562977     -0.96200416454041
