24
Coordinates from ORCA-job 17454optt
  Br  0.75013984174950      0.06209935564159     -1.17536930150194
  C   2.87945762832099      0.09097749409042      0.03764035255911
  C   3.68606515405447      1.18185828812005      0.20344711224372
  O   3.27572052687987      2.47696371658436      0.42041017390763
  C   4.40568830931096      3.21037571442979      0.52681295583486
  C   5.52478039385279      2.45614217092427      0.39415624746785
  O   6.82344847553809      2.83478653794054      0.44219550433960
  C   7.04490267350730      4.21201000815588      0.62768181718220
  C   8.54485670542269      4.40351687368580      0.61226730246062
  C   8.99210529200345      5.82023448452552      0.79687514854349
  O   8.26061698451523      6.76097963861159      0.94802986898683
  C   5.09111092676759      1.09694784168394      0.17619647044880
  C   5.71097662471149     -0.12064428417056     -0.03452608083592
  Br  7.58648181941444     -0.31688503886342     -0.11102380936168
  C   4.92829370420913     -1.30467954477263     -0.20856329252989
  O   5.32657780122482     -2.45311098784131     -0.38588163798665
  N   3.53763213383487     -1.06121504925661     -0.15605008511469
  H   4.27469790457361      4.26602402445545      0.69408567658402
  H   6.61673416920998      4.54726505241248      1.57954570522150
  H   6.56705349347997      4.78812852290789     -0.17286401260893
  H   8.96376768583657      4.03278806776189     -0.32936050416773
  H   9.01287486817582      3.79467495656840      1.39332825142886
  H   10.09034652446242      5.96890549258864      0.78743578007929
  H   2.98567035894367     -1.89514333618411     -0.32046964318095
