24
Coordinates from ORCA-job 17465optt
  Br  6.46014449025298      1.99175171188452     -0.18167614749016
  C   7.05085769385187      2.53546593143084      1.56607355731007
  C   6.21022999438970      2.40343367363279      2.64114978838188
  O   5.22663342176933      1.40144577392827      2.67988891331920
  C   5.82706806136281      0.30081115512595      3.30426109706800
  C   6.82324091064778     -0.32205827366429      2.69357481237141
  O   7.71760502478245     -1.18901095548851      3.29867721059631
  C   8.99587345697754     -0.63037060312463      3.28279357402184
  C   9.17521045685921      0.64233667248384      3.62335419349151
  N   10.35347877294092      1.38959105991312      3.43518025712893
  C   10.18616645533683      2.61722974236950      3.11643643536381
  C   8.80526989039599      3.16082020519268      2.86781933215897
  N   8.33310117357155      2.85741015183096      1.66332150110489
  C   7.97593187514200      3.50745937258990      3.99664680453122
  N   8.40985813082194      4.02021975818983      5.11135267572794
  C   6.55961165788522      3.02479911125625      3.89929222992486
  N   5.79770368674506      3.02842180987281      4.94531677779632
  H   5.53870318938660      0.12477883125240      4.33381028373294
  H   7.09169190346322     -0.05490684035519      1.67790153155545
  H   9.76277839294221     -1.29593128643339      2.90790758569897
  H   8.31056991618845      1.15882354558064      4.02088119068899
  H   11.08425105434593      3.21729552817860      2.97470659726593
  H   9.40933925566443      4.21156848449955      5.02158394555778
  H   4.90168113427585      2.61061543985351      4.68974585269289
