24
Coordinates from ORCA-job 17466optt
  Br  2.06676861464511     -1.09167172005006     -1.40318463045294
  C   2.94649441787954      0.08170798311537     -0.18778913828208
  C   2.74207110252508      1.41733310527388     -0.18538107441460
  O   1.86418703644526      2.04599308889917     -1.04754438780268
  C   0.48158546366633      1.86998042636760     -0.83472812929923
  C   -0.26124105495399      3.17481358361538     -1.13085917162230
  O   -1.10669471190396      3.17938501790816     -1.99186143643849
  C   -0.04130704500220      4.42410100458376     -0.28899742153536
  C   1.38480344302246      4.87031162222504      0.02710166994016
  N   2.02724758060944      3.93385961857011      0.93396121335948
  C   3.38028375880763      3.63562144876165      0.71737330794560
  O   4.19554102678686      4.52974793806025      0.58803436821573
  C   3.64830372604078      2.19614999785641      0.60144292296098
  N   4.78439173587173      1.66054050492462      1.09770534278573
  C   4.98553547355764      0.35523200283044      1.07694830822638
  O   5.92381134495972     -0.30315332936075      1.44166645761695
  O   3.86594769848226     -0.49624695037690      0.57404227859462
  H   0.28287334599767      1.56144730428806      0.20018726246664
  H   0.08022431454052      1.10768646463911     -1.50374709586687
  H   -0.55910914333455      4.24061170787709      0.66215260419452
  H   -0.58257041287314      5.22197949850540     -0.79671750052350
  H   1.97542785858527      4.94984931878839     -0.88946553230744
  H   1.33766255844614      5.86889603630135      0.46739766247407
  H   1.48076186719830      3.10782432639635      1.11426211976462
