25
Coordinates from ORCA-job 17469optt
  Br  2.50297272430608     -1.16616273636770     -2.47928998772471
  C   2.89884186723810      0.06237759328362     -1.09863384973579
  C   2.90963095980529      1.38877332493526     -1.26731465289488
  O   2.53789420655205      1.98126275571118     -2.44308568413407
  C   1.21077291884738      2.50446778793632     -2.37943307890405
  C   0.98459623345189      3.65586697964921     -1.40389063200072
  O   0.65646352979498      3.19946215907277     -0.09584929398888
  C   1.18162625266816      3.99383544175657      0.94709221551893
  C   1.52718550810180      3.23532467413690      2.22982072251008
  N   1.01836230374502      3.50362685053474      3.35507158159476
  O   2.53222192085304      2.32085588247335      2.24791354813448
  C   2.85830850663731      1.62490825542784      1.09348474376706
  C   2.86823174416966      0.18022687534122      1.26960068304584
  N   2.75651386603065     -0.50704527376185      2.32497649410465
  O   3.08643309738017     -0.52913913901660      0.09369938399106
  C   3.07272103164322      2.18838336577158     -0.09272347528356
  Br  4.57380068373052      4.12290582072366     -0.39475215580078
  H   0.51126297016498      1.69131851686679     -2.15203190815240
  H   1.01400981512898      2.86851417002569     -3.38808845721107
  H   0.14397042650869      4.25165335536759     -1.78206652145262
  H   1.88193824829553      4.28005911233021     -1.38459074314748
  H   2.09689353703916      4.49865887709195      0.62587268327461
  H   0.44309804939064      4.75105046344418      1.23259673544388
  H   0.30728305881144      4.22024096483070      3.24761680685917
  H   2.65196653970494      0.13157392243449      3.11000484218648
