25
Coordinates from ORCA-job 17460optt
  Br  0.91932677007657     -0.20384911471887     -0.10773577747302
  C   2.82293640048367     -0.09456096644019      0.03203247784383
  C   3.55788384701378     -1.24271767857060      0.10566129146328
  O   2.92438965987423     -2.45994723773949      0.19132840825985
  C   3.30232381449368     -3.40187781864431     -0.79663024502119
  C   4.51533550462961     -4.22436997151183     -0.40149335208801
  O   5.73950450141014     -3.52641616481193     -0.43022780866154
  C   5.80278733649813     -2.38077130206995      0.44052255509357
  C   5.56515620149091     -2.83348135162974      1.84157145163243
  N   5.40158666276603     -3.11417460297795      2.94481749994105
  C   4.98048795142708     -1.20377517277664      0.06689007298790
  C   5.59449922972765      0.07585162068056     -0.14416975382241
  C   4.81665770125547      1.19548420773697     -0.19270309541728
  O   5.45727748541772      2.45216391185975     -0.31693212054326
  C   5.55026003892390      3.00965302329840     -1.51989896238955
  O   5.18842125785604      2.56533390156380     -2.56752811082946
  C   3.42443514554042      1.19164895309143     -0.06285272564686
  H   3.47576593603594     -2.89635351045574     -1.75138712268530
  H   2.45011621048821     -4.07819643042204     -0.90148948561945
  H   4.62960598207761     -5.04717867833059     -1.11068648069609
  H   4.34056807758703     -4.64713545307123      0.59656060639446
  H   6.85107895371518     -2.08086176366480      0.40489365944730
  H   6.66791301818813      0.16520731133077     -0.26098686532151
  H   6.03875742748009      3.98960420411636     -1.41084198846057
  H   2.84892488554237      2.10272008415797     -0.02671412838816
