21
Coordinates from ORCA-job 17474optt
  Br  1.19553618241638     -0.03200460588393      0.61251243659637
  C   3.01001809573233      0.10891426199758      0.09956934701837
  C   3.76873478316453     -1.04423795191503      0.01826690648962
  O   3.12762106561793     -2.17336704265926      0.27808814795904
  C   3.73942876024960     -3.46837903550997      0.16854750291132
  C   5.02797172369643     -3.51437730404267     -0.59977474796910
  O   5.36007841546410     -4.50505232275539     -1.26262216164512
  C   5.93431915124309     -2.33392869766059     -0.29537959352452
  C   6.30650252142234     -2.75868112424271      1.12883004711531
  O   5.65049252162661     -2.40139830800392      2.10566423669806
  C   7.11369905690309     -2.32418066451278     -1.15417802843923
  N   8.07185737309224     -2.28322849756719     -1.78365429784985
  C   5.16975257654435     -1.03048359139625     -0.32900312757310
  C   5.80779865446482      0.11012105772888     -0.64767468966772
  S   5.11795032745515      1.67311445718318     -0.73096978656744
  C   3.42416808846764      1.44750231360278     -0.20659365629471
  O   2.73940681313459      2.44800888754617     -0.16945298488737
  H   3.01712535212206     -4.09935310519378     -0.34499220561606
  H   3.87349797579259     -3.81629526844436      1.19781158020342
  H   7.05961582107777     -3.55961510469357      1.16274864247254
  H   6.86342474031210      0.08992164642292     -0.89074356742982
