23
Coordinates from ORCA-job 17479optt
  Br  1.69617960303786     -0.08965093328985     -0.54467229901643
  C   3.54718768407474     -0.00969581552945     -0.24710691321336
  C   4.23950146078466     -1.17207317681900     -0.15925136333050
  O   3.79194624232487     -2.42429902626983     -0.26559688878406
  C   4.88958277696109     -3.28988141526085     -0.09656050310978
  C   4.69338621265177     -4.68123800339950     -0.15525063596014
  O   5.61187173890119     -5.51185101591741     -0.01126525177216
  C   6.00766518395741     -2.50709806262103      0.11086728944197
  N   5.59825234050080     -1.19020657132772      0.07123395292975
  C   6.27658334096933     -0.03183765717403      0.22004878362179
  C   5.63819067895434      1.19183592626331      0.13978983917629
  C   6.39507208155448      2.44906840183085      0.31473460775407
  N   7.66190642670976      2.56263451838348      0.57583432444476
  C   5.57284844801279      3.61729251846658      0.16325400309168
  C   4.23694351108328      3.51922575812399     -0.09014095442108
  N   3.52825882565952      2.37556777438145     -0.22861226702005
  C   4.22328364479836      1.25364606550907     -0.11563418386266
  H   3.65261868116587     -4.99337077439558     -0.34186415330560
  H   7.02733428942439     -2.79106136013467      0.28582291792451
  H   7.33487176641643     -0.14013538624128      0.40189938237815
  H   8.11173758575126      1.65565992640003      0.66192043663459
  H   6.04948030617244      4.58297129393725      0.26524803960769
  H   3.65229717013331      4.42949701508419     -0.19269816320944
