24
Coordinates from ORCA-job 17484optt
  Br  1.01339557832099      0.48942755137847     -0.27489011605518
  C   2.87805897554126      0.29972008549101     -0.12444888617448
  C   3.70385505499365      1.40162211243404     -0.03864425243590
  O   3.31895829530357      2.69299309670044     -0.04222091982865
  C   4.46539442691687      3.45865209459371      0.07134894247586
  C   4.30059488086735      4.90588615812237      0.10280349456339
  O   4.19094130191600      5.47420019402122     -1.24410418417726
  C   4.05884673909115      6.79981535950050     -1.33306390018109
  N   4.00628743937979      7.67673595657527     -0.41751922637630
  C   3.97452457076309      7.21612784061927     -2.72202000361021
  C   3.90577436474268      7.54515346186022     -3.87012808616249
  C   5.56406468667344      2.64592672481104      0.14667678574648
  C   5.10727609427086      1.30063507665605      0.07970474865205
  C   5.66322535412637      0.02903649823334      0.10821221401616
  O   4.83433154708489     -1.08093983892842      0.02987356309668
  C   3.45666978974526     -1.00896486623398     -0.08098066932249
  N   2.79848150596832     -2.10711415971423     -0.13437350652077
  H   5.17046457246775      5.36555986706320      0.57847058466838
  H   3.38961684507118      5.18699979988830      0.63992882035619
  H   4.07065711050790      7.25955105569721      0.50679816200187
  H   3.84376655025936      7.83700590751845     -4.89053198751008
  H   6.58243018721771      2.98981717145842      0.23981341964830
  H   6.70241868649482     -0.23655419708675      0.19376255541211
  H   3.45696544227567     -2.88029295065924     -0.08346755228252
