25
Coordinates from ORCA-job 17489optt
  Br  1.01529797249524     -0.06499047564043      0.08237516346050
  C   2.89481180140433     -0.04114033114890      0.00594977407147
  C   3.64156683736543     -1.22632208893272     -0.09888157980739
  O   2.94552047018522     -2.40998872512620     -0.13430516325630
  C   3.69504300182297     -3.55302750292345     -0.47491348577968
  C   4.98202681645431     -3.58675627588068      0.34145604770200
  O   5.67356183631217     -4.82725996679019      0.18848911924075
  C   5.17646317465331     -5.87243022263539      0.86492760128291
  N   5.59402293774766     -7.05517372305804      0.76533536837682
  C   5.86211079737810     -2.43357492008737     -0.08202184371763
  C   6.45014389409530     -2.54148240017731     -1.47337859727538
  O   6.33060750222859     -3.46617832155627     -2.23551595900446
  C   5.02836249846286     -1.17196588961462     -0.06683725255751
  N   5.73205063934246     -0.02868104586707      0.02738058456486
  N   4.95378750673258      1.09970463170607     -0.05718339791746
  C   3.56809317593956      1.21261398744194      0.03753735236187
  O   3.07050564789496      2.33642482561932      0.11641314269280
  H   3.93711951764676     -3.56053805793812     -1.54117295212764
  H   3.06540388081265     -4.41374104322076     -0.24427466772320
  H   4.71925756346868     -3.45152521460029      1.39678748487246
  H   4.36031197447367     -5.62989206560412      1.54867517647570
  H   6.34497851212253     -7.09779858558706      0.07480088753184
  H   6.69289311970577     -2.29359946042937      0.61922996770319
  H   7.00027494644053     -1.62732873306350     -1.76316025844781
  H   5.44978397481414      1.96565160511463      0.07328748727732
