24
Coordinates from ORCA-job 17481optt
  Br  1.10019616417203      0.02262415300406      0.41932309932476
  C   2.99586732632797      0.04910580047119      0.18992776310355
  C   3.63173779922998     -1.17364807797956     -0.05288395330941
  O   2.99249218280049     -2.40224718486158     -0.11947671916115
  C   3.45339605236633     -3.32998260365507      0.82812632482207
  C   4.72319235431048     -4.07409003528299      0.41785840399318
  O   5.01239492121612     -5.11845354815178      0.94317954594244
  C   5.59657801462718     -3.47877881152799     -0.68262478560695
  N   5.92549941705440     -2.09948533769785     -0.42875605251257
  C   7.16212256416882     -1.49720005737142     -0.47753963015969
  N   7.09748934415587     -0.20598879579673     -0.29372039754430
  C   5.76206515771971      0.08616894235427     -0.11664348454503
  C   5.02012230563694     -1.09055213500723     -0.20563476553526
  C   5.09352758788730      1.33230027617196      0.12531775022514
  C   5.77188470504047      2.57519859599137      0.22368391052004
  O   5.23438709420746      3.68012909274781      0.43404882270139
  C   3.67298962262807      1.24660394341526      0.26566825925061
  H   2.67840026133453     -4.08485840414530      0.97039316557980
  H   3.64637672948359     -2.84653331413509      1.79452579316283
  H   5.05817727783321     -3.57491807589538     -1.63243971383809
  H   6.51190539856513     -4.06574057349882     -0.72906885873587
  H   8.05672668454817     -2.07552845395733     -0.65132371685540
  H   6.86651994391707      2.51174714703293      0.09722944155743
  H   3.13395109076859      2.16612745777528      0.44582979762048
