26
Coordinates from ORCA-job 17480optt
  Br  0.92133331322344      0.39435078575477      0.60566492040102
  C   2.77108560770629      0.14282346932025      0.35840172495061
  C   3.60317758239741      1.21842681733274      0.18878631988512
  O   3.28452317803905      2.50865925384712      0.17779324812319
  C   4.47310872898823      3.24875353139422     -0.01803486567131
  C   4.41749641446380      4.65019563867530     -0.05153762405133
  O   5.42958551742245      5.37375154121087     -0.21475201368664
  C   5.50732776443692      2.33672314088060     -0.13267663998116
  N   4.94191089791109      1.07047107057711      0.00396752929859
  C   5.58782335897917     -0.16809959357113     -0.02100750631292
  N   6.86797467471134     -0.30448208622379     -0.19866433198248
  C   4.71199195467141     -1.29100007284193      0.16800129172000
  C   5.37333950091594     -2.64049609963331      0.18804640689206
  N   6.10215458389574     -2.95366807551178     -1.03200566689046
  C   5.51008599046877     -3.59769660972971     -2.07231127823328
  N   5.89419599816351     -3.69457763860200     -3.28451585483911
  C   3.36283495668525     -1.13031831462105      0.34376184336992
  H   3.41080468367150      5.08071789978161      0.07823131847242
  H   6.55227549858136      2.50851446022413     -0.29034642234688
  H   7.33352805104931      0.59010349811005     -0.29786851210986
  H   4.62590656382712     -3.41898057396598      0.35146572991737
  H   6.08706656770617     -2.67719670241808      1.01499760101132
  H   6.81844336952559     -2.26204746594745     -1.23392583689673
  H   4.60177806939917     -4.13096592721424     -1.78201052521808
  H   6.74032187647592     -3.14451713761350     -3.43739258623773
  H   2.73092529668396     -1.99944480921484      0.48293173041636
