22
Coordinates from ORCA-job 17490optt
  Br  0.97075345735331     -0.81797578900647     -0.27525879720611
  C   2.81980484076750     -0.47520288014571     -0.13788917807291
  C   3.70579591540668     -1.53559946681248     -0.02427572560137
  O   3.22766273635793     -2.82214986159231     -0.01097701615341
  C   4.16663806813000     -3.82038645557414      0.16118113530237
  C   3.55672904047541     -5.16526780028367      0.22644958312957
  O   3.11330360594316     -5.67492940364547     -1.04526383109932
  C   1.94885168385384     -5.19496137147975     -1.52802820987015
  N   1.44146274435590     -5.56582369563819     -2.61758714637329
  C   5.47638355585129     -3.53308788429769      0.26719106010913
  N   5.99854789356881     -2.27032562891420      0.22817854998452
  C   5.08257952568601     -1.32971166166379      0.08768876831458
  O   5.54456560980932     -0.05877406882588      0.06195916877674
  C   4.75032251029759      1.06094600968361     -0.04055858190711
  O   5.29410945755195      2.12635247460540     -0.04319411606901
  C   3.24946217146443      0.87399902225049     -0.14126150440591
  O   2.53470740542595      1.87372050742249     -0.21603189990839
  H   2.70299848898309     -5.16406583290183      0.91211854450127
  H   4.29495843247077     -5.88198372574085      0.57802248738939
  H   1.46167058435316     -4.44654138486479     -0.90283416949480
  H   2.04803325101883     -6.25220800193885     -3.06862007829239
  H   6.17765902087502     -4.34902310063588      0.39799095694660
