24
Coordinates from ORCA-job 17496optt
  Br  0.95011348350309     -0.87363478428960     -0.33722939232255
  C   2.80468414572756     -0.55011537689052     -0.16233818773791
  C   3.65611056607752     -1.62031230720390     -0.04389912518660
  O   3.14182160124309     -2.90645653667535     -0.05163920529986
  C   4.05530721435662     -3.90517665341844      0.12851675134170
  C   3.43787212548218     -5.25246512596896      0.19325804506717
  O   2.96885628955279     -5.73406133501195     -1.07158379616032
  C   1.78900592242681     -5.24590322696438     -1.51862890212033
  N   1.24843456483326     -5.61881200973241     -2.58989670438421
  C   5.36052776002121     -3.68453470798211      0.25087620603231
  O   5.93164397030110     -2.45945078079467      0.21956441310064
  C   5.04079808943388     -1.39251675444717      0.09176092956505
  C   5.54655312668151     -0.12832344664778      0.10693497926569
  C   4.71852485418248      1.03671206806919     -0.00962637432970
  N   5.16632335903683      2.26469367494170      0.00677837572594
  C   3.23812162586877      0.83101406056772     -0.15664926350467
  O   2.45277870952963      1.77309291840672     -0.26292468885150
  H   2.60212222243488     -5.24216146319763      0.89967239626594
  H   4.17467495506765     -5.97981616214666      0.52626128611261
  H   1.32948110316288     -4.49156227477279     -0.88019619242537
  H   1.83678071549414     -6.31048441940600     -3.05673029544968
  H   6.06848467985802     -4.48820358944029      0.38670433359412
  H   6.61813363777472     -0.00407245069111      0.21335430123504
  H   6.18184527794933      2.23755068369643      0.11166011046650
