27
Coordinates from ORCA-job 17497optt
  Br  1.36750805270425     -0.94820107920082     -2.34988588694452
  C   2.63244483505996     -0.66495909477796     -0.32708540384289
  C   3.42019363388976     -1.72182749278658      0.06512717450544
  O   2.92251159430723     -3.01303034504481      0.11063894995808
  C   3.38170897210933     -3.85880711602188     -0.92818225062782
  C   2.35236091260652     -4.96345611096832     -1.07061493154176
  O   1.08571878504465     -4.45818724472083     -1.42798098547014
  C   0.27209358613519     -4.06499107237863     -0.41760875302235
  N   -0.74105867953973     -3.34474375794282     -0.55970851373152
  C   4.73453996738229     -4.46076635625273     -0.56641434297805
  O   5.77499650178044     -3.52555656935130     -0.43991290243572
  C   5.66764922887347     -2.63875685822813      0.66180929254947
  C   4.75493151711708     -1.46454535657860      0.38144193926560
  N   5.30421736418704     -0.26631248232055      0.42212667689391
  C   4.52880562650397      0.82099877273129      0.13319776545580
  O   4.89698269067108      1.98311997083265      0.18712811763185
  N   3.20451350775488      0.54460727817562     -0.26846445218263
  H   3.44007330476542     -3.28502909008595     -1.85908588258231
  H   2.28500317381141     -5.51966527449355     -0.12718746969459
  H   2.65029553355742     -5.65328849499257     -1.86123107876157
  H   0.54948614373176     -4.46920295715990      0.55672924873762
  H   -0.78552512609866     -2.98284582043094     -1.51423620722778
  H   5.04787798342770     -5.15778769538345     -1.34736453417747
  H   4.62063442499978     -5.01833250991940      0.37561535003424
  H   6.66562404811344     -2.24892253923957      0.84916959942847
  H   5.31135022291675     -3.18659420616520      1.54397913133659
  H   2.67906219418741      1.35308350270502     -0.57399965057595
