23
Coordinates from ORCA-job 17495optt
  Br  2.32970004112965      0.69061087125171      2.28008387457398
  C   3.13522822548641      0.32215701977051      0.54356916907834
  C   3.42164608126510      1.13788707240920     -0.46224440037435
  O   3.31923758207384      2.46461148975978     -0.61136817888917
  C   2.26373583769922      2.88696191749857     -1.40071011811542
  C   1.46924767362904      3.85165443902704     -0.97324851099568
  O   0.53049448506093      4.34880415220485     -1.84013633430214
  C   -0.53756339669180      5.05145747314087     -1.35677944169541
  N   -0.88570161610248      5.31335218162034     -0.18835126666985
  C   0.80949771803869      3.49849721163984      3.13658726621710
  N   0.71799071811702      4.28045436756673      2.28553530293965
  N   0.81531847027592      2.73531387738220      4.21700410914954
  C   1.22020107167713      1.56656580083886      4.44899987325222
  O   3.99039136700327      0.42756967435393     -1.52252287466359
  C   4.05894336872480     -0.88602268929408     -1.14663292493329
  N   4.50945197359513     -1.85083421073326     -1.83928821471269
  N   3.54694691469570     -0.94574162249984      0.11785503733174
  H   2.17446206920195      2.42089957468560     -2.37447315750028
  H   1.54993803373634      4.28432505797651      0.01722319300479
  H   -0.30105856527188      4.94384963083132      0.56770653992623
  H   -1.11449032567248      5.39288309929161     -2.21334210991167
  H   4.83107520609453     -1.51396122036053     -2.73990942700206
  H   3.47030706623362     -1.79729516836204      0.64344259429198
