16
Coordinates from ORCA-job 174optt
  C   -3.17492969165453     -0.33925781564952      0.00000059219551
  C   -2.46271481524344      0.87529090856824      0.00000044382700
  C   -1.08155945992378      0.87663365513063      0.00000027935961
  C   -0.36684507832182     -0.33639877447087     -0.00000130430874
  C   -1.05634716285912     -1.56377753208824     -0.00000046181483
  C   -2.48294138972831     -1.56514862230928     -0.00000106797433
  C   -0.45287239597837     -2.84137309112463      0.00000087947892
  N   -1.11004085539165     -4.00887120806141      0.00000139455300
  N   -2.42437266417845     -4.01012175253297     -0.00000000965642
  C   -3.08387888570963     -2.84402364405253     -0.00000153948350
  H   -3.00329623486176      1.81559303567790      0.00000202924357
  H   -0.54284205946147      1.81801183173522     -0.00000184667153
  H   -4.25925949584016     -0.34258895826745      0.00000196475711
  H   0.71748771140397     -0.33748296188642     -0.00000124508807
  H   -4.16649134723681     -2.92863630612028     -0.00000233444676
  H   0.62990382498533     -2.92384876454840      0.00000222602945
