26
Coordinates from ORCA-job 17509optt
  Br  1.26069207843620     -1.94889355027577      1.10603976087615
  C   2.39310012841362      0.10886618150378      0.11309553904833
  C   2.58247337146326      1.38577797977179      0.53931545365662
  O   1.87574349535675      1.94152137689244      1.59107504894289
  C   0.48079782498688      1.78044507836690      1.52741178638097
  C   -0.22305455847397      2.51651030298489      0.39363471179000
  O   -1.40520191753813      2.34852513708935      0.23011470352040
  C   0.53971504961628      3.45015687444855     -0.54025299729200
  O   1.31680971845323      4.37870167148273      0.17730421890767
  C   2.64060322322291      4.58290561431897     -0.27618343383818
  C   3.65937541079913      3.64416852656826      0.36989095001695
  C   3.52775184472304      2.22230154010105     -0.10797987038780
  C   4.23975118229128      1.71343782381264     -1.16589497502385
  Br  5.50470694203713      2.75223409643010     -2.12366081139245
  C   4.07813442237134      0.35900244124450     -1.64924858170064
  O   4.67299140593426     -0.16816442872592     -2.58053719318227
  N   3.12054211863883     -0.34041475410384     -0.92303088856668
  H   0.07654975130527      2.17107416752826      2.46307358398406
  H   0.20262764890299      0.72417740931323      1.45091859657736
  H   -0.21233035619006      3.97046122145425     -1.14055778535888
  H   1.15365017548162      2.83432736407783     -1.20633173157254
  H   2.68843979717135      4.49534077054017     -1.36796977966459
  H   2.89022290706828      5.61161406979773     -0.00961163858679
  H   3.50869802114420      3.67558191279216      1.44839542362277
  H   4.65617481047393      4.01874457627774      0.13913051485012
  H   2.97703550391029     -1.30240340369190     -1.21214060560761
