25
Coordinates from ORCA-job 17502optt
  Br  0.68060283478832      0.65445214090866     -0.15756635164403
  C   3.14418121215252      0.23750516725695     -0.52353794282126
  C   3.71389566517432     -0.98808533187465     -0.39032057668564
  O   2.99891887624575     -2.14379510197934     -0.67159216988711
  C   2.15605362130499     -2.59132459004855      0.36307699004185
  C   2.90835802846883     -3.72863464062505      1.05431975642977
  O   4.18118695353680     -3.23879239166994      1.44409678643611
  C   5.19960474520116     -3.45754710085726      0.55025009005135
  N   5.66880840430454     -4.59514971035775      0.24266715339226
  N   5.74495908942069     -2.29582127467681      0.09695315047617
  C   5.08781946757261     -1.05308420830182     -0.02924559541478
  C   5.81940610483044      0.09062385956536      0.14061647283812
  C   5.22969892009075      1.39452010630978     -0.01523047600868
  N   5.77792138008482      2.55805183498395      0.10611008620267
  N   3.86987338535966      1.34613946045908     -0.32107580593077
  C   2.20362816381868     -4.22972229450613      2.24278543889772
  N   1.62459012603405     -4.62425170744469      3.14878217785728
  H   1.22077164625067     -2.95418319669263     -0.06566984963488
  H   1.93244873464903     -1.78764951134729      1.06628050157521
  H   3.03309486231570     -4.56137847150788      0.35583060869528
  H   5.23448310731304     -5.32218594725606      0.80322339426638
  H   6.63574372185029     -2.40274613364128     -0.35996153873622
  H   6.85722458564464      0.03039428760190      0.43977181791237
  H   6.76080206058148      2.45124563687298      0.33568713478108
  H   3.40592430300608      2.24341911882856     -0.38925125309027
