24
Coordinates from ORCA-job 17506optt
  Br  -0.06374230941781     -1.29229339767745      0.12494462069535
  C   2.34385606086166     -0.67270851077765      0.80672423575051
  C   2.56978941731414      0.68518265019736      0.91639930553802
  O   1.63055330919117      1.55355004437037      1.43456913141477
  C   0.91793704937720      2.26054780299661      0.45177139058527
  C   1.70783130651616      3.34934886854701     -0.25163522814739
  O   1.13007436470521      4.25298123893178     -0.80693670615839
  C   3.23334468411449      3.32060782205690     -0.38683104260181
  O   3.99149434016880      2.59409158753953      0.55674417936992
  C   3.78305725244673      1.23690372242875      0.50673393246169
  C   4.77939238865177      0.39732983256544      0.04140363956690
  S   6.37949248846172      0.82119317556239     -0.53421714311811
  C   6.75011624337708     -0.88728050876889     -0.88940400741886
  N   7.81659548230241     -1.37557041021236     -1.38431059807923
  N   5.66923283076184     -1.64523551044094     -0.53389453299901
  C   4.55414414262801     -0.97616662956621     -0.03391965459344
  C   3.32897620030661     -1.52019136127468      0.32956313512239
  H   0.06713229479961      2.73908180250304      0.93562575972639
  H   0.52726118789725      1.57008073451082     -0.30824546636284
  H   3.56840893864775      4.35516002768620     -0.33571803073155
  H   3.43452818809813      2.94442016142778     -1.39884799792740
  H   8.50010614720523     -0.65506544396033     -1.58697043317788
  H   5.69411304838241     -2.63790927547784     -0.69956242350715
  H   3.13930494320236     -2.58205842316765      0.21201393459186
