21
Coordinates from ORCA-job 17501optt
  Br  1.48394849190979     -0.24089165750890     -2.53265457904543
  C   2.40296900057245      0.40357334249083     -1.01434777339129
  C   3.27844025996539      1.44813296982603     -1.09901542573864
  O   3.19457421668967      2.34387179743752     -2.15513061304942
  C   2.10126717197222      3.17229456968689     -1.96490041812190
  C   1.54810970158495      3.36440090615265     -0.77080156387217
  O   0.43735234496631      4.15042112902921     -0.56159428979204
  C   -0.14117261079373      4.10344718044386      0.68005356199553
  N   -0.16639493778529      3.23147081647746      1.57052108917839
  C   0.19104560630611      1.85296626179265      1.68538742887900
  O   -0.66040343354692      1.02657378856702      1.50323159791337
  N   1.50757316354500      1.70488773151389      2.10686795676412
  C   2.31460910803969      1.00490248949383      1.31628888360646
  C   3.63038781634181      1.55224339492427      1.13856031363826
  N   4.06313358850737      1.83497090929185     -0.07214806690053
  C   1.92662375149086     -0.01371685871385      0.29581721662444
  O   1.22773857783478     -0.99051530582034      0.52362317606097
  H   1.73372795808994      3.60995229864921     -2.88219349121352
  H   1.96530413234587      2.96734071470003      0.13600267480983
  H   -0.65536948822731      5.05046035278174      0.83486396296536
  H   4.16253558019098      1.97421316878412      1.98456835868923
