23
Coordinates from ORCA-job 17518optt
  Br  1.21739053506814     -1.33792684092445      0.37285802195213
  C   2.73201102297501     -0.17573592618302      0.15524882944014
  C   2.69352038503134      0.85063157831842     -0.72295609187488
  O   1.66627564904540      1.00140241597125     -1.61773017083060
  C   0.61510066417025      1.87291951678901     -1.22871289925961
  C   1.01092867828316      3.30290736638289     -0.86592963473975
  O   1.02059437526336      3.45863542771749      0.56424993815265
  C   2.07646183323955      3.88388383498303      1.25466331462179
  O   2.04493492202780      3.93687116287012      2.45201361326951
  C   3.33624622841017      4.42221912953588      0.54620648443289
  O   3.26535995967082      5.44804012873135     -0.07449936616778
  C   4.59239927698310      3.63076780220021      0.82908535467153
  C   4.28400427206431      2.16775163600591      0.59571162213283
  N   4.41372622023923      1.34963246366785      1.60161529900490
  S   4.01929702697292     -0.27438814870244      1.31772764568176
  C   3.71874351161451      1.89569601957260     -0.71358852284758
  O   3.88877330817047      2.68304621072046     -1.68356583566284
  H   0.06722170535675      1.43923192405889     -0.38516655914070
  H   -0.04222089754379      1.89777424246216     -2.09785226377970
  H   0.23868340326889      3.98552004272712     -1.22245228350324
  H   1.96364234883209      3.57040275470329     -1.32019557261676
  H   4.87042133860592      3.77261055669784      1.87440647026686
  H   5.37148423225055      3.99810670169409      0.16286260679645
