27
Coordinates from ORCA-job 17515optt
  Br  1.79612808801562      0.83655955963676     -2.33244493788922
  C   2.61408070064271      0.01383816283889     -0.79433691529859
  C   3.03412731694756     -1.28545927987947     -0.89254891249313
  O   2.69965076743678     -2.07856759826965     -1.97670903819349
  C   1.40697533549361     -2.64978450946227     -1.84942305631874
  C   1.26468007063294     -3.70764765035013     -0.76529739490766
  O   1.11857258889612     -3.08327595721394      0.51605263542865
  C   1.61340857403643     -3.74651016073099      1.57318936272380
  O   1.82015427929029     -4.93284388447053      1.57650884375441
  C   1.90975163480384     -2.82806811480515      2.75387975938627
  N   3.22694926847526     -2.16842911392285      2.67002846042496
  C   3.32237086824096     -1.31959556929417      1.51610647165193
  C   2.87645764514085     -0.02603720149972      1.58544833113433
  C   2.62865185446494      0.72473866648109      0.41652299120686
  C   3.65890567356683     -1.90850751659093      0.23983351499533
  C   4.32605147677527     -3.12924296385746      0.14779575715408
  C   4.89806232012019     -4.20405327951830      0.10743340015879
  H   1.20598220442348     -3.13070037376263     -2.80948702756596
  H   0.66442095762046     -1.85881832429354     -1.69343322260274
  H   2.13590748006902     -4.36301771505348     -0.74525339970786
  H   0.37081795379732     -4.30567612987617     -0.96525535631602
  H   1.88312523564783     -3.44445807275254      3.65252334948176
  H   1.14953470177453     -2.05042958099139      2.81545782861036
  H   3.93311405530545     -2.89724226549183      2.60416693388958
  H   2.66288958641979      0.39411188025626      2.56314464299903
  H   2.36917592542404      1.77231817905886      0.44898128081180
  H   5.33605343653786     -5.17020118618467      0.06711569748146
