24
Coordinates from ORCA-job 17517optt
  Br  1.61508527006859     -1.42786405777207     -0.94525734047332
  C   2.96643200250512     -0.36113777707801     -0.15136249520860
  C   2.91614479954377      0.98660440743526     -0.15483523896166
  O   1.88667502122303      1.63693348963814     -0.79289484257971
  C   0.71203121537229      1.91107242530254     -0.04183990111308
  C   0.15149280517702      3.25613504782232     -0.47740215041227
  O   0.68589365978149      4.39417278521162      0.17055134216667
  C   2.05839475885429      4.58007857975196      0.01870429628525
  O   2.71715608272643      3.57663360293965      0.74719308126522
  C   3.96139683904714      3.17424896632512      0.28857316169589
  O   4.77779602109725      4.00455185264896     -0.05689476151439
  C   4.06661542315967      1.73550652180334      0.29606841328643
  C   5.23948259767070      1.00515016892088      0.62469134863445
  Br  6.77741039716654      1.87409202952231      1.29039915661004
  C   5.28117929545091     -0.41279285935353      0.68165115107075
  O   6.19421934582448     -1.14338839651745      1.06197142973679
  N   4.08344291190294     -1.04097589647990      0.26777121971264
  H   0.92978465676580      1.91590518363848      1.02635432831160
  H   -0.02903192927374      1.13272827331024     -0.25567403090703
  H   -0.91704460818379      3.28426017226641     -0.25891788516148
  H   0.28856119516376      3.34367405850004     -1.56286648037392
  H   2.35966435136041      4.52020953574703     -1.03440476366777
  H   2.28075884154119      5.56845739524937      0.42109924071763
  H   4.04245904605469     -2.02925550883275      0.45632172087988
