26
Coordinates from ORCA-job 17511optt
  Br  1.52338056176936     -0.25745167654210      1.67285935287913
  C   1.81393291649101      1.32670524582310      0.59033127907996
  C   2.47341529705739      2.40622268598719      1.20876884947877
  O   2.38626985731193      2.61830072570730      2.56926900898812
  C   1.08334086724651      3.04091758391404      2.96002041404212
  C   0.47481402002245      4.13683812192671      2.09280783183611
  O   -0.16477265074704      3.55863663624472      0.96067790422715
  C   -0.25279958136158      4.38369585893602     -0.17365961368360
  O   -0.67406133658876      3.63854942544780     -1.25920065880381
  C   0.36998800162800      2.99897955227909     -2.07946072804476
  C   1.50860791744853      2.41741428206834     -1.34353948026351
  N   2.58088146537343      3.25862486506378     -0.97603548766129
  C   2.88651669932813      3.48221861492769      0.37900560822331
  O   3.41518554983672      4.54725479491775      0.71285980151830
  N   1.29132109203914      1.31017771325472     -0.59299991699339
  C   -1.22949601251526      5.47640938027141      0.05852706535762
  C   -1.97135862712155      6.38716594042559      0.29407215054405
  H   1.19166642738467      3.41397894419030      3.98039624369776
  H   0.40088693997857      2.18268064843084      2.96764280939242
  H   1.26095101025705      4.83385380175793      1.78516285984824
  H   -0.26998537050793      4.68585304208981      2.68139438099138
  H   0.72948790821976      4.84730832531277     -0.35160230474377
  H   -0.17874575359844      2.21887992289337     -2.60304127707971
  H   0.70868062802491      3.75856217988473     -2.79244631429974
  H   2.79047779438448      4.05335797258929     -1.56161919104484
  H   -2.63958562136148      7.18886541219777      0.49480941251395
