26
Coordinates from ORCA-job 17521optt
  Br  5.21041246776037      4.32245256084250      0.90667330612196
  C   6.50370186145081      3.18699249218695      0.07736636547197
  C   7.40228056429223      3.72961937943776     -0.86119749341606
  O   8.30530158157346      2.85229061992223     -1.38906025258449
  C   8.00058978850011      1.47601111121495     -1.21136600278379
  C   7.61597874725860      1.23964326765596      0.20818328050628
  O   8.22739728462161      0.21450138142610      0.92734300894907
  C   9.55868476459409      0.44211665535883      1.20594370106064
  O   10.36346579099669     -0.43285051225847      1.06446400093656
  N   9.83988578549851      1.72857412315569      1.63824941194660
  C   10.71096177524455      2.48959654127081      0.78363491233664
  C   10.26254472669178      3.62575335201219      0.22919585201734
  C   10.84958118634033      4.40246386395403     -0.82125308121222
  C   10.15942001797138      5.30441396781238     -1.60283029616846
  C   8.78952172856888      5.68291866584622     -1.64143987892653
  C   7.62264104104011      5.08138097835622     -1.15514251656009
  N   6.82159453250820      2.06947051852478      0.77423503718226
  H   8.88366359144920      0.91403588795935     -1.51166842698090
  H   7.15333709070876      1.22644558564019     -1.86849531429585
  H   8.98655903328170      2.24463360894847      1.82107501517212
  H   11.64349402157912      2.00219865508408      0.53477948044689
  H   9.28147241912680      3.96021783075542      0.55433622273533
  H   11.90254839500487      4.25023617794475     -1.03732601320386
  H   10.78628430361884      5.88754467174130     -2.27470817421697
  H   8.63212785665197      6.67556479821035     -2.05768784946397
  H   6.77854964366633      5.73277381699671     -0.96630429507042
