22
Coordinates from ORCA-job 17525optt
  Br  1.48952795379277      0.65858413681795     -2.86379737400912
  C   2.29134132359721      1.01631804915777     -1.21267341496951
  C   3.20347934257015      1.96496112867174     -0.98596244798459
  O   3.40254184164484      3.02278211442996     -1.80117772854574
  C   2.25989446696273      3.96076032466503     -1.70139714325058
  C   1.65413680166303      3.96689635609625     -0.30161667640575
  O   2.24601945304170      4.56459221629745      0.62707425017423
  C   0.50520719208020      3.12015306861860     -0.12456489459429
  O   -0.17365326998494      2.57706433690239     -0.99663730289241
  O   0.19428611713322      2.84477443463306      1.24250671833076
  C   -0.21388770903459      1.56259056901513      1.48753141773591
  O   0.91857620465770      0.68499271150269      1.86063858789060
  C   1.95581760810027      0.86671939676648      1.05288433840952
  O   1.74686812324477      0.30562286907164     -0.18297122523961
  N   2.98325947038427      1.52004546584543      1.37449319853932
  C   3.85987769077692      1.90835617585523      0.34797574540584
  N   5.06674678750552      2.24748870203306      0.51893032998198
  H   1.53019933193386      3.67423780621918     -2.45835327616344
  H   2.70070815799422      4.93058712963019     -1.92078788025011
  H   -0.69956146009022      1.11908119328721      0.61872889010084
  H   -0.83350874365306      1.54151389613079      2.37893994291254
  H   5.28412331567937      2.17987791835270      1.51323594482361
