23
Coordinates from ORCA-job 17520optt
  Br  0.81435428075538     -0.17005249246810     -1.19268920241189
  C   2.92088860997724     -0.05496919845790      0.16225549430158
  C   3.62100582312373     -1.23713803013690      0.27462275929695
  O   2.98065396744258     -2.43848547451304      0.51318800006672
  C   3.51013909092672     -3.50428740652737     -0.20854955004223
  C   2.84484689334507     -4.80787156368093      0.19437269530241
  O   2.02069727396108     -4.90936910790680      1.05233383352138
  C   5.02553222147127     -3.66315976164328     -0.02913534203841
  O   5.59795490402110     -4.72844634001591     -0.15184540122548
  N   5.65503960607625     -2.50198912393704      0.26328892896774
  C   5.00785235392864     -1.24990961601166      0.19433746033602
  C   5.74108691608792     -0.07844384295058      0.04168461331074
  C   5.01880327197330      1.10546793753147     -0.03052500089195
  O   5.60122259787814      2.37695004019945     -0.15146240752278
  C   6.88263058607932      2.62518978130584     -0.37206588564803
  O   7.78674477542992      1.84896395632432     -0.49361123268473
  C   3.63093317682769      1.12332118572238      0.01080354252389
  H   3.33104155925308     -3.37597666274586     -1.29057482398679
  H   3.19929681830672     -5.67780114894150     -0.38463583464237
  H   6.66260507233351     -2.54156498801634      0.32026132751583
  H   6.81543517211978     -0.10215648171188     -0.03078150624887
  H   7.01039003715375      3.71449604057183     -0.43129785344578
  H   3.11784499152764      2.07123229800982     -0.10597461435397
