23
Coordinates from ORCA-job 17533optt
  Br  1.20069712389905     -0.15548840537086      0.60200561574443
  C   3.07867000025848     -0.08764133677041      0.31382652198194
  C   3.72395085779642     -1.28347665267015      0.10687655060946
  O   3.12241487168943     -2.48021251906280     -0.12932185920118
  C   3.50580015511660     -3.53045385084510      0.73590113569237
  C   4.68751714094551     -4.32022985416503      0.20013215175370
  O   4.71055401386545     -5.53741407842465      0.25165380941081
  N   5.70116857980667     -3.61218631849680     -0.36140039543806
  C   6.00248813221730     -2.24193017486352     -0.32725624888330
  C   7.21819939786060     -1.63530227045953     -0.48790294415191
  N   7.10229506486680     -0.27952058414634     -0.39150650070302
  C   5.82503165672675     -0.03729540161991     -0.16049372034255
  N   5.10060730389963     -1.22574356596944     -0.13125542618258
  C   5.13229535906518      1.19917198298540      0.07404147337866
  C   5.83665609287779      2.43517735520484      0.07498573162361
  O   5.32490111677367      3.54751283813921      0.27048150525165
  C   3.73794179965296      1.13182429366806      0.31881559399253
  H   2.67232580804567     -4.22547188624078      0.81285355605644
  H   3.74534498253743     -3.13909847530710      1.73093857946989
  H   6.44637510670240     -4.19560127518171     -0.71283465045952
  H   8.16383314202241     -2.12215326250021     -0.67120724640445
  H   6.91924837858941      2.34908823467521     -0.11602790483195
  H   3.20768391478429      2.04944520742166      0.52669467163303
