26
Coordinates from ORCA-job 17539optt
  Br  2.53821777295275      0.61119389066482     -3.24247784666386
  C   2.91198938277058      0.76501681026908     -1.37446992346421
  C   3.82134773687260      1.75496420517245     -0.96617061310982
  O   3.92319680934695      2.89345057928662     -1.75272507772580
  C   3.04772153268341      3.90871244655481     -1.28354553030680
  C   1.55421875081034      3.56221582329572     -1.44227437056451
  O   0.98680176813923      3.80231063364944     -2.49183322312312
  N   0.85643690154830      3.02500495885866     -0.39817227758297
  C   1.25755128355665      2.81069736959026      0.98108384126492
  C   0.52128076646506      1.64006148836004      1.64076600149214
  N   -0.63469310203834      1.76578088141601      2.17992020597652
  N   1.18122555391042      0.44418218761599      1.70400151845443
  C   2.28592426741024      0.12452220957779      0.86929698948595
  S   3.92831476237793      0.45306106857711      1.42253369137926
  C   4.40244247647130      1.81426422289298      0.32751253782698
  N   5.15530173966679      2.78890333246023      0.73525045909735
  C   2.07007965153276      0.09229210192933     -0.49818499264941
  H   3.21203176276234      4.76911864962485     -1.92927279426251
  H   3.30700185010863      4.16888354662842     -0.25346347788208
  H   -0.11524312688522      2.85917307650909     -0.62129698149163
  H   1.01660843475923      3.69194541041881      1.58581574355052
  H   2.33008250008761      2.65880467886539      1.02995444041770
  H   -0.94550647517782      2.73125712162442      2.12392727234786
  H   0.74084542575763     -0.24939389460906      2.29030718647722
  H   5.36889104319434      2.67613118901889      1.72316216870598
  H   1.11693053091610     -0.26955398825229     -0.87464494765011
