26
Coordinates from ORCA-job 17536optt
  Br  1.39520461118391      0.00421586691454      0.66606497418015
  C   3.20364006824515     -0.05800165555584      0.09518088585400
  C   3.84793599532978     -1.30927161127070      0.08063151494062
  O   3.15166519011123     -2.38477020069257      0.46858866352269
  C   3.27796210814955     -3.59549297424748     -0.28035480539749
  C   2.13104735971279     -3.91620157537690     -1.04298072758000
  O   1.09318669996821     -3.22564380019440     -1.16058014828129
  N   4.36384128817184     -4.32634946023335     -0.18192712147959
  C   5.45287816892415     -3.73317517331580      0.53863808659993
  C   6.06178698337574     -2.55503580106675     -0.23008805809398
  C   5.20111261115746     -1.31548918583147     -0.26634128564125
  C   5.78353330366594     -0.09710591343397     -0.62098996125696
  C   5.04435114320520      1.06637448496758     -0.60356914698597
  C   5.59540368306009      2.41959942804843     -1.00983920704818
  C   7.05014408336908      2.49701973555870     -1.09334036014854
  C   8.24540660024381      2.56009033539287     -1.15566012281749
  N   3.76292576374261      1.07997728753250     -0.22992038334948
  H   2.23561785640747     -4.88488546539189     -1.56148597044611
  H   6.23378978265661     -4.48556926961222      0.67619386555334
  H   5.16307303138472     -3.38248259268645      1.54183207978445
  H   6.24778663472558     -2.89009972677244     -1.25536546063497
  H   7.02977867548006     -2.27205617470387      0.19720863067290
  H   6.83238281216970     -0.06659497450715     -0.89082218311577
  H   5.23252118189832      3.16024530984049     -0.29497133413717
  H   5.16924182868531      2.69591118595254     -1.97863247070824
  H   9.30578253497551      2.61279192068569     -1.20746995398557
