26
Coordinates from ORCA-job 17540optt
  Br  0.95213640560058     -1.46476100539922     -1.82767322499988
  C   2.25897270408292     -0.44985243298176     -0.95906420456166
  C   1.95841613820395      0.76506380191103     -0.43463914623963
  O   0.74225258839053      1.29349871125925     -0.57935678959721
  C   0.14436704939289      1.90005750845458      0.56391925367662
  C   0.06120327179745      1.06535468887909      1.70700786801947
  O   0.47699945715011     -0.11527311696857      1.78430401546704
  N   -0.28417813033064      3.12874236095731      0.49334166980973
  C   0.07162287650578      3.92248926063786     -0.65175549170417
  C   1.42177757224569      4.61549209789381     -0.48136830918504
  O   2.52852306539209      3.73911946230484     -0.58721790949362
  C   2.85581045864693      2.98673030740395      0.56886636511431
  C   3.02674446688743      1.53910475684922      0.18582080181699
  N   4.20915471404865      1.04968837085794      0.33275386118545
  N   4.43027152357164     -0.19833811873899     -0.09027411830848
  C   3.58046854790802     -1.02303767994634     -0.81504197908373
  N   3.92499701668778     -2.16822103700799     -1.28169830229949
  H   -0.42770860140788      1.56279777312007      2.56007901495478
  H   -0.67615875313810      4.71465660940840     -0.77466446442185
  H   0.10808742998430      3.35127616126552     -1.58764231294113
  H   1.55984600326426      5.35343655627186     -1.27668024283147
  H   1.44288877498172      5.13623571445304      0.48393429667249
  H   2.09500033019292      3.10898390837479      1.34006672568999
  H   3.82026028494709      3.32352230177916      0.95898126496406
  H   5.37642670226220     -0.51257893403086      0.04870404839189
  H   4.89481810273168     -2.37718802700799     -1.05270269009546
