23
Coordinates from ORCA-job 17549optt
  Br  1.74645972408191      1.70497218992161      2.73434201072376
  C   2.62862359155174      1.27662441184218      1.09449877259387
  C   3.54038175679716      2.10904077420747      0.58933653911206
  O   3.64633297101895      3.43099009882103      0.93970538236848
  C   2.70633941596487      4.18587547612854      0.18372200017938
  C   1.26132718396022      4.14834729522163      0.72412535176368
  O   0.91890461370900      4.96530948459808      1.52915919653026
  O   0.32560048349285      3.32024054562276      0.22186428947614
  C   0.48538999603110      2.16893446891107     -0.59839290234962
  O   0.09881601162921      1.04104735247584      0.12659523924301
  C   0.88749940494911     -0.10588212390907      0.00538933611758
  N   0.30832557389088     -1.14929678676254     -0.43405263466498
  C   2.27904885582009      0.07083323392110      0.36680126518254
  N   3.21636793416496     -0.72588895286130     -0.18111554272298
  C   4.42210226747159     -0.25032138676061     -0.49846839767892
  N   5.49932234493108     -0.86599322006325     -0.82198358958818
  S   4.58457616220202      1.58364833241516     -0.71292559029672
  H   2.75043293617923      3.88879745331927     -0.86793176306673
  H   3.00712259113002      5.22584959211200      0.28157165233748
  H   1.49877482677927      2.07645358965333     -0.99089265980589
  H   -0.22723250604526      2.31358579712628     -1.41151704868773
  H   0.99366400518818     -1.90436047265000     -0.41758938845395
  H   5.30781985510180     -1.86680715329062     -0.76624151831254
