21
Coordinates from ORCA-job 17554optt
  Br  3.64454324905424     -2.35812554932236      3.35895074830451
  C   4.86172359613699     -1.41979463319268      2.27700124550527
  C   6.19516291737832     -1.45335947285207      2.47400447341669
  O   6.91845380271896     -0.70199904431628      1.55914135465739
  C   6.62147593893919      0.65320184922675      1.67515713405720
  C   5.37987292810243      1.03730699006579      1.43058118762961
  S   4.19712897021202     -0.24899723986125      1.14728543955059
  C   7.85352182606857      1.27497912679139      2.23876562784251
  N   8.01923024178516      1.16954264794782      3.47999418801450
  C   9.38019714645905      1.03979723875656      3.96915737868764
  O   9.91801487328774      1.93949631667856      4.58279164121153
  N   9.90141124826675     -0.15334059296806      3.61400230361078
  C   9.16206666231837     -1.18753127895669      3.17092934395978
  C   9.64329158977751     -1.94215460467832      2.04188056190130
  O   9.07934992528556     -2.89013316174584      1.50811225891120
  C   8.00679442267522     -1.70568086830960      3.92295366554961
  N   6.79108765808888     -1.96192838455336      3.59517834526168
  H   5.03441344713297      2.05678981349713      1.50592243934343
  H   8.67459746788774      1.46519488883909      1.53811537693059
  H   10.61993853215011     -1.57425003890147      1.67315724865349
  H   8.24472355627394     -1.93001400214509      4.96591803700061
