21
Coordinates from ORCA-job 17569optt
  Br  2.03741037366770     -0.87797277999859     -0.35776664981037
  C   3.56921054433158      0.19425561809981     -0.10327723599595
  C   3.47546673060556      1.59089197394012      0.02244575877320
  O   2.25724490328508      2.21811621821257     -0.10564491164458
  C   2.23713332511449      3.49080906402438      0.41039189880801
  C   1.93427827639047      4.56633828900228     -0.32335209913399
  S   2.67037272705942      6.04098860795487      0.25411161502087
  O   2.64143924229394      6.02793237460797      1.69844470373282
  O   2.09534504069247      7.17758104488473     -0.43342535157758
  C   4.28538656405052      5.85780747717887     -0.38106166627213
  C   4.98327843979669      4.68143308462397     -0.34158639325260
  N   4.58403335285929      3.64737744181016      0.39144752207028
  C   4.62822993124389      2.34856777507740      0.16306572162824
  O   5.86011092656961      1.68023136320002      0.12034943011754
  C   5.82463412039678      0.31713718934411      0.00167062536282
  N   4.77535014542135     -0.40452638633954     -0.10208429158177
  H   2.44859769579207      3.56782009427997      1.46721748604655
  H   1.78033867892518      4.51433998006772     -1.39224919153484
  H   4.58079294342676      6.67394631561992     -1.02231520078649
  H   5.85267932788500      4.59095183142827     -1.00233444955773
  H   6.81566671019205     -0.11302657701913      0.00695267958772
