23
Coordinates from ORCA-job 17568optt
  Br  1.35530746063108     -0.69484913730218      2.15927919325698
  C   2.53728008784818      0.22605585483441      0.96476019096118
  C   3.51301403213091      1.09354030187989      1.52263592859146
  O   2.95936359597384      2.02891882677655      2.54206284161427
  C   1.76582954021371      2.54712312243165      2.20340777539262
  C   1.46190426947240      2.99258230078825      0.97460720845006
  S   -0.16415939059505      3.31097089189717      0.44706847851610
  O   -1.09721334028970      2.69383327190733      1.36134986616754
  O   -0.33892545183200      4.71693306903141      0.15656801980007
  C   -0.21047721190004      2.56464816654675     -1.16855941440559
  C   0.31836462088559      1.40072828179910     -1.55199427146998
  N   0.76423405337617      0.38053854969887     -0.69124100812652
  C   2.13823345401472      0.48160353290253     -0.34171179171647
  N   2.95343582680142      1.01651189378192     -1.24060881377738
  C   4.14679479949341      1.46378837310461     -0.76544012424378
  C   4.43534689661290      1.61878381078065      0.56468373236027
  H   1.01639013897860      2.50594222407469      2.98876732426279
  H   2.20055447056623      3.06035948583839      0.18578127378083
  H   -0.56917670449453      3.27433396510161     -1.90163715284696
  H   0.43855890492087      1.20760757550870     -2.61235515430968
  H   0.20425730094533      0.33917888395194      0.15399997667609
  H   4.84928861602865      1.80450105931839     -1.52021869978497
  H   5.30879403021727      2.18036569534733      0.87779462085104
