23
Coordinates from ORCA-job 17574optt
  Br  4.65897096002726      1.45042099610640     -2.04448178611344
  C   4.97901644250459     -0.40497027809159     -1.84121973951665
  C   4.05136667536014     -1.30678509970146     -2.20884287062102
  O   4.24461148020141     -2.61485286077051     -1.78609297384526
  C   5.06505763434635     -2.75973404060070     -0.70191662296515
  N   5.99318663836663     -1.96592665532528     -0.36240681545709
  C   6.15952661661266     -0.82119435861456     -1.12774768120021
  C   7.43562369459196     -0.20795369943531     -1.34311001570030
  C   7.75891471348528      0.15686846692070     -2.62934066229715
  N   6.97092542468925     -0.29698888919620     -3.62942192587235
  C   6.45724302225949      0.34795042926183     -4.67558699785280
  O   6.72768441959281      1.42721968863444     -5.20036315863674
  C   5.18232387575135     -0.44054435794825     -4.92849461076211
  C   4.00435741738257      0.16088531519017     -4.78917965129717
  N   2.88068051708625     -0.50109199351854     -4.23045736127092
  C   2.80812605650421     -1.18219191145746     -3.04131456824000
  O   1.77435174373974     -1.72658365440521     -2.69678471742543
  H   4.85778162159917     -3.67760845824551     -0.16719889884624
  H   8.14493274808183     -0.11947668300834     -0.52907392246210
  H   8.66391079135096      0.73585076038596     -2.82933803426742
  H   5.24990341052537     -1.50963836793039     -4.76198532624351
  H   3.90904581589996      1.23436794391269     -4.90461292199953
  H   1.96545828004064     -0.35202229216287     -4.63102873710732
