23
Coordinates from ORCA-job 17579optt
  Br  5.03834787035781      2.84843116244310      0.70128366105303
  C   4.11154143585023      1.85796194404785     -0.62240424917592
  C   3.86577044813321      2.44065006323688     -1.81998535306662
  O   3.22056547329975      1.68177521723161     -2.76053755484456
  C   2.34284909231877      0.67346625431320     -2.33354357445905
  N   2.55272558215447      0.09824726394054     -1.16964126693648
  C   3.52472624010701      0.57627357820114     -0.34962001471542
  C   3.83089229963597     -0.26024918572034      0.78783067059617
  O   4.70661931938151     -0.09072827862201      1.62578839221447
  N   1.43142029264210      0.32766021813645     -3.19790613372529
  C   1.19170412715107      1.10474494502441     -4.29714909317183
  O   1.30982281345653      0.77414995847637     -5.44822242483483
  N   0.69937210803214      2.45436832478716     -3.99902837338800
  C   1.75900852996790      3.35794565695604     -4.00233848185457
  C   1.98761179404559      4.32550556680934     -3.11162349234924
  C   3.38282189649524      4.69865935371070     -2.79757996859575
  C   4.20976967629750      3.81890095201789     -2.20977857624536
  H   3.16983016790604     -1.14498622202849      0.82670228305132
  H   0.24356207907897      2.45489756463773     -3.09435538038159
  H   2.52102467215372      3.11541484718324     -4.73358342986401
  H   1.22754731178581      4.58099714036255     -2.37665089281905
  H   3.74347414073993      5.71512976983583     -2.93483041257904
  H   5.18799262900862      4.15478390501873     -1.88482633390830
