22
Coordinates from ORCA-job 17578optt
  Br  0.73553163466322     -1.44093869022144     -4.12657767710953
  C   3.71931625292414     -1.81874923520580     -3.05301093784569
  O   4.86953597193298     -2.60980463679758     -2.94584338413481
  C   5.78481437875480     -2.53063554691747     -1.99517631544963
  N   5.98431529740991     -1.74892001143736     -1.01534668463835
  C   3.79888931323689     -0.98506410890226     -0.22023263488487
  C   3.08614853458363     -0.07215619344727      0.52992326649766
  N   3.62473004183023      1.02548514182920      1.07820684617052
  C   4.91499334253484      1.22237739157856      0.86180139881518
  C   5.73205265348588      0.36157008711996      0.12935040935749
  C   7.16526569883044      0.65897165830151     -0.01182746503481
  O   7.72302264388880      1.60340956823205      0.50124557435237
  C   5.16994233793985     -0.79442359738385     -0.44655174858793
  O   3.17388788596352     -2.07905994681978     -0.74966591868772
  C   1.37759224025469     -1.55717416287555     -2.15493627242180
  O   0.52963474373595     -1.37960109129788     -1.31974181437355
  H   7.73216560676376     -0.05691313935887     -0.62817560966092
  H   2.02495105684191     -0.24731608123841      0.66986831973206
  H   5.36271477403470      2.11235638222580      1.29086421560237
  C   2.74418149639851     -1.84694991958146     -2.06778135626607
  H   6.53684649640340     -3.29471426551500     -2.17858007181244
  H   3.47846759758786     -1.63174960228708     -4.08381213961953
