23
Coordinates from ORCA-job 17581optt
  Br  2.40428048966608     -2.24935495230864     -0.48026283368212
  C   4.00163990996148     -1.89238584727843      0.45854572927497
  C   4.75528162963518     -2.96039622983258      1.03908700774521
  O   5.73203630906021     -2.47293876018558      1.87676801785113
  C   6.41130230158396     -1.29742212827976      1.53244538087440
  N   5.69344074781602     -0.28032782450655      1.04648901470022
  C   4.49193447897638     -0.61249438323314      0.56246876006968
  N   7.69046355457897     -1.29081403739437      1.73834519341476
  C   8.26216723397471     -2.51366936456122      2.00460641376683
  C   9.17634716832560     -2.78835698272381      2.98056768842587
  N   9.49409133232703     -4.06950373007652      3.35663832007779
  C   8.67305789375126     -5.01934988682488      2.92346482827115
  C   7.68239308343500     -4.79849013351670      1.96573205080303
  N   7.86148632283543     -3.62202948372502      1.24654918161589
  C   6.50494434263238     -5.58942738989707      1.82246700193967
  C   5.24021867066649     -5.30996275996969      1.37234698710677
  N   4.56776875543989     -4.21164002145523      0.86575862183956
  H   3.89706925598918      0.20391945909317      0.16380645975723
  H   9.60181591411051     -1.97681850579979      3.55561996249798
  H   8.73593642984212     -5.99187261177469      3.40537764483641
  H   7.18128667944427     -3.44241516107497      0.52725520009552
  H   6.61926062321351     -6.60856215837081      2.18117546176514
  H   4.58877687273385     -6.17968710630351      1.37174790695278
