20
Coordinates from ORCA-job 17583optt
  Br  1.35034735288980     -0.29626862466006      0.10230425399894
  C   3.22981984149228     -0.16499213710315      0.20141981966519
  C   3.85052732942221      1.06172977229256      0.42144394653263
  O   5.20782198400431      0.98335105832078      0.65669304543885
  C   5.94218692536956     -0.03068338769955      0.03572417472210
  N   5.35914830498211     -1.18759428741118     -0.20927569151271
  C   4.02724763344163     -1.26501624641999     -0.04813387555011
  N   7.21063327874416      0.19976048581364     -0.17852278383042
  C   7.74936896271351      1.44256409984453     -0.11193989827733
  C   7.22123382508878      2.67827905399932     -0.31932427611471
  C   5.82234323392489      2.85358491943169     -0.71788350858210
  O   5.26861747911596      2.37539614324026     -1.66580322974207
  O   5.14728285970215      3.66573416611772      0.17594143425259
  C   3.82276878334914      3.39761975415125      0.40787740330417
  N   3.25238567717386      2.25021518850956      0.47704104528903
  C   9.16970057062624      1.43641308301208      0.21993790330507
  N   10.28530196720265      1.46069100037895      0.49029161515895
  H   3.57165300658158     -2.23623865021138     -0.20032427082070
  H   7.80722086914813      3.55848897935134     -0.09777336784262
  H   3.25239011502701      4.30096562904161      0.57330626060524
