19
Coordinates from ORCA-job 17582optt
  Br  3.33798416861610      0.75742704955485      2.42726388291913
  C   3.90805322980942      0.08266973085809      0.75453800376766
  C   3.60239293411452      0.70888415713104     -0.37734518488387
  O   3.77990899064507      0.05881484595180     -1.56607261526173
  C   3.87905700295126     -1.31368391875249     -1.46005492673761
  N   4.29090334357730     -1.94354773535377     -0.45645819171911
  C   4.79011062930462     -1.09269477151740      0.60007235926608
  N   6.16065027867371     -0.99051614422874      0.53071454715512
  C   6.64660331076945      0.22577609047871      0.45685233799853
  N   7.55086046936396      0.70418418238061     -0.41978211296999
  C   7.19574588024438      2.00033940239820     -0.57159933871181
  C   6.20957847453428      2.35911670321529      0.31555464741213
  O   6.01662016929680      1.24952703829959      1.10699469740374
  S   5.05655280840996      3.61740585578360      0.43324394266069
  C   3.39361618228065      3.12914818075230     -0.15092216932582
  O   2.58695217522540      4.00505175387499     -0.15074416152905
  O   2.97633274622116      1.89508397770762     -0.58234575476839
  H   3.55371032425491     -1.78490761847018     -2.38057897784761
  H   7.64236688170695      2.62892121993590     -1.32733098482809
