21
Coordinates from ORCA-job 17584optt
  Br  2.75763885980897     -1.94463331292581     -1.81842101093107
  C   3.22050378108137     -0.23240360339513     -1.21080569256965
  C   3.79992763882737      0.62195639649435     -2.07425840807858
  O   4.18289764332895      1.87126589221830     -1.67832961704258
  C   3.63788360788291      2.32004658192268     -0.52204710543527
  N   2.73753307543097      1.74620927891455      0.13493083908984
  C   2.26418225484636      0.50089373817840     -0.34231649771949
  N   1.06388660464897      0.13276231224289     -0.35090248826281
  C   0.00788831807685      1.08162574444730     -0.35499652623790
  C   -0.87822112579163      1.07725973167249      0.77181085475008
  O   -1.88833866329989      1.76841854220950      0.91565515889535
  C   -0.30284999507666      1.80401472517028     -1.51272810225596
  C   0.33268548882180      1.89711056992803     -2.78499027924100
  O   -0.14794050272012      2.43805637524294     -3.79423617861702
  N   1.65343663371514      1.35373890006608     -2.82874777947095
  C   2.39521861657834      1.02612544006053     -3.75909719575017
  O   3.72815296187268      0.54291436385078     -3.41429535047905
  H   4.07460969508973      3.26599088573882     -0.22437403650518
  H   -0.57765960392147      0.36600095923847      1.56525625434093
  H   -1.25838733410537      2.31336935038552     -1.46230783194524
  H   2.27795204490467      1.00827712833901     -4.83779900653426
