21
Coordinates from ORCA-job 17591optt
  Br  4.42034175286909      2.84447193938818     -0.78514165778280
  C   4.86533731650064      1.25838229784049      0.12986008360502
  C   5.85629510737061      1.14725409734963      1.02045600401598
  O   6.01982483732132     -0.06047461614173      1.58755220521586
  C   6.12359553766745     -1.06143786158570      0.49407539601568
  N   5.12698032257495     -1.07440756234898     -0.37860805321687
  C   4.25661364675429     -0.03429918706973     -0.40547163859162
  O   3.15196332285353     -0.02915955959383     -0.93242253977564
  C   7.51561452017351     -0.80982631674870      0.04562221326610
  C   7.83208409380912      0.22139799221114     -0.78202594299491
  C   8.96954436747495      0.78618197585085     -0.16309498131298
  C   9.40547676731899      2.20945991435698     -0.29377257481991
  N   8.35345934622147      3.19364661396327     -0.04159460147761
  C   7.28686091821080      3.07172489033221      0.60347511189090
  O   6.86961656203421      2.00215106857113      1.37517303236186
  N   9.40723051624503      0.04461165166361      0.81958970388475
  O   8.50938735743849     -0.98973422477177      0.93546858550560
  H   7.18748947359025      0.65424299398808     -1.52829508674723
  H   9.78080587454354      2.42376901477946     -1.29536309349816
  H   10.21799441940921      2.39975874048925      0.41038017411225
  H   6.61948393961843      3.92428613747613      0.67013766034372
