21
Coordinates from ORCA-job 17594optt
  Br  1.48381914267113     -1.02505617438124     -0.54546803847940
  C   3.18285226240142     -0.21110707534821     -0.70092883497085
  C   3.77666254201288      0.42995251213697      0.38112830883266
  O   4.83405297620597      1.32028689954231     -0.01837343293210
  C   5.71554601239792      0.37854265293173     -0.45668713925735
  N   5.34419797122331     -0.15061386320884     -1.65661653039228
  C   3.93071291515116     -0.42474287421566     -1.89094087872806
  O   3.59586218850946     -0.88282843553116     -2.97133684164394
  N   6.72585608755854      0.08475734233199      0.27576649551141
  C   7.32094254670303     -1.14954383253698      0.24808261178777
  N   6.84031098123817     -2.33097491443358      0.27833242153953
  C   5.49029872541593     -2.70089114840374      0.26889632096355
  C   4.42072778904115     -2.29167664529252      0.97325734798681
  N   4.33355641145283     -1.32678063139385      1.97459119659515
  C   4.04474906678831     -0.11017966454982      1.71549049038446
  C   8.78656908517538     -1.08859381896449      0.29963378551638
  N   9.93169439194077     -1.03077482768771      0.31590484185557
  H   5.94627058768108     -0.85431828410336     -2.06280103369242
  H   5.32503241971492     -3.58115378483929     -0.34194381019036
  H   3.51092912539786     -2.86505391184731      0.81855812768773
  H   4.10935677131869      0.59575047979476      2.54245459162574
