21
Coordinates from ORCA-job 17595optt
  Br  1.10444040643874      0.15036063881871     -0.07922791836593
  C   2.97188052545312      0.15565696166565     -0.07740038548825
  C   3.76137414270551      1.26367638939289     -0.07790772537593
  O   3.38705510575211      2.56634214491093     -0.07850141070996
  C   4.58092120843391      3.24848163878690     -0.07862108546146
  N   5.63027160757173      2.49683523107344     -0.07821278497876
  C   5.16595245901930      1.20480123992814     -0.07782194252273
  C   5.83479112397424     -0.06190549452291     -0.07738874994323
  C   7.29859796625234     -0.23427700535186     -0.07770140679259
  N   8.14409796594407      0.73617378146186     -0.07891952807942
  N   7.80647872058101     -1.54020916898950     -0.07657632234115
  C   6.99251171750334     -2.54437764811007     -0.07566837187020
  C   5.57866440835165     -2.47587555636670     -0.07574223842425
  C   4.74758598965470     -3.61012737202000     -0.07452608424293
  N   3.99206654083419     -4.48677990794893     -0.07339613842338
  C   5.00705270045743     -1.18206637825645     -0.07668117006312
  N   3.62997688706667     -1.06870879593508     -0.07684918105723
  H   4.51964961861898      4.32221829723616     -0.07902782186775
  H   7.65296502678110      1.62523176130714     -0.07954383443493
  H   7.44132106073034     -3.53710508833741     -0.07474418238857
  H   3.08634481787550     -1.91934566874292     -0.07554171716824
