28
Coordinates from ORCA-job 17600optt
  Br  3.13931632019787      1.21896777511752      3.33821155002563
  C   4.29338592326793      0.81456858820928      1.17471085517021
  C   5.01581964158896     -0.33375597352797      1.08242539156053
  O   5.74924848936903     -0.99053281914517      2.05630311322786
  C   6.23867055908859     -2.05175477646748      1.40939133309050
  N   5.94013126367372     -2.18969147002687      0.16656826076808
  C   5.12754842623697     -1.07629315397413     -0.09795548195546
  C   4.49312253922642     -0.67492088822263     -1.24888053724320
  C   3.73126617413108      0.52821958363069     -1.22658062787722
  O   3.15423362742868      1.03268303198526     -2.19610053169885
  N   3.67099835252166      1.20072267009115      0.03997231568426
  C   2.91836884035368      2.45908330095884      0.07416361111629
  C   3.83955471223907      3.66517319996242     -0.05332377723972
  C   4.63579422742441      3.67054646790186     -1.35431947522513
  N   5.44788559869500      4.86699654093067     -1.52586606395142
  C   6.68510364704459      5.00723578424924     -0.97742972652160
  N   7.40122867384779      6.05699119588983     -0.87181774290282
  H   6.85582135272175     -2.71589711465599      1.99619073817344
  H   4.55808032734056     -1.21926607554232     -2.17803923267187
  H   2.39335895838024      2.48964396346340      1.02642830957269
  H   2.21003792171565      2.42813319308424     -0.75037422835532
  H   4.52516928406090      3.68159359234925      0.79953734431819
  H   3.23146516925569      4.57368451559294      0.00236688670196
  H   3.96734661617736      3.56780604838598     -2.20938116818391
  H   5.30068293756557      2.80550879956584     -1.39021198912962
  H   4.95999968910125      5.71961644964956     -1.75551238064084
  H   7.09311001540309      4.06220342789378     -0.61503893304293
  H   6.90925071194228      6.87373414265075     -1.23743781276971
