23
Coordinates from ORCA-job 17608optt
  Br  0.93506272072950      0.38897446230200      0.34538316111353
  C   2.78924114035815      0.20145330757021      0.12625193223001
  C   3.65521867511064      1.29291022892258      0.16474785047872
  O   3.34822689789712      2.64809286703792      0.09107223701492
  C   4.51136945940706      3.33298196153512     -0.05894718915923
  N   5.52750852510215      2.43156742538525     -0.15724279274451
  C   5.01875301086710      1.13651770120477      0.02681072582992
  N   5.68466727674604      0.01114819364561     -0.04781685192097
  N   4.81992497994956     -1.06841952974865      0.19448829551198
  C   3.40706547889560     -1.08821110876303      0.12511885713729
  N   2.74740097469152     -2.20407308352660      0.11940058199233
  N   4.61543398204676      4.60422582848168     -0.11054935751401
  C   3.40125975168280      5.32998331470380      0.08257000139880
  C   2.98416462513030      5.45885312001986      1.53808901215928
  O   3.53964582117108      4.93830928647800      2.46492798871933
  C   1.79831801472360      6.30925443922924      1.74430066497620
  C   0.82860182569935      7.00439141349124      1.85898120815666
  H   6.49112358194029      2.70469789504369     -0.09766463986640
  H   5.24824163510932     -1.93583500886434     -0.08176501672381
  H   3.39169831756209     -2.99183129128877      0.14487230990999
  H   2.52840620230654      4.90317927048062     -0.43504636718697
  H   3.50824508803991      6.35275494935740     -0.29451584477029
  H   -0.03557798516657      7.61307435730234      1.97753323325722
