21
Coordinates from ORCA-job 17607optt
  Br  1.06488648474598     -0.00094413675135      0.73315369613399
  C   2.87829327753425     -0.03657371965429      0.26580613297999
  C   3.61550307739656     -1.21716303485581      0.19047128713354
  O   3.20611673118713     -2.49798334066025      0.36963950753350
  C   4.33647134562106     -3.23617659472265      0.17593409809394
  N   5.39478424418942     -2.56091275492620     -0.10281430382183
  C   4.97271622639646     -1.24020015041671     -0.10232025928410
  N   5.72367905272584     -0.16039551522627     -0.34477545790997
  N   4.95278006267525      0.98575293701770     -0.26087818129981
  C   3.61292257571968      1.14666362246014      0.02598714290958
  N   3.04967801770733      2.34291162270551      0.05176059788319
  C   3.78201851469145      3.47670482219500      0.00911754361814
  C   3.58337672200396      4.57448595199963     -0.73073950722749
  O   4.37416130484775      5.68391278825291     -0.46225192395446
  C   5.26886662929951      5.47518528886042      0.53273395210125
  N   6.08898583616061      6.34104998127707      0.95345490599245
  S   5.14155724036095      3.84240710854714      1.16261097532531
  H   4.23097529889980     -4.30254516487750      0.27916399773777
  H   5.46545647374856      1.81438460003871     -0.51124980613961
  H   2.84363856210814      4.71924703249396     -1.49841234844380
  H   5.97113232198027      7.20518865624282      0.42760795063842
