21
Coordinates from ORCA-job 17604optt
  Br  0.91654112027729      0.43897053089878     -0.05140490543388
  C   2.77637133867545      0.14916057606758     -0.05866505559500
  C   3.67848471142376      1.19748002657034     -0.06080690719999
  O   3.43677077551955      2.53122629863506     -0.06099438800173
  C   4.68584963300933      3.10043402505232     -0.06381194503533
  N   5.66279643132789      2.25476012947106     -0.06528100523586
  C   5.06742622807290      1.01910806923418     -0.06334233020372
  N   5.68073495003030     -0.19598515141956     -0.06350002003705
  C   4.80409700699758     -1.17922375077630     -0.06141425113536
  C   3.38409028400775     -1.14076632427012     -0.05942242315837
  C   2.93294741632551     -2.49560685213775     -0.05893213018829
  C   4.03365156759934     -3.33497897127740     -0.05977414160738
  N   5.17501208784349     -2.53621595114126     -0.06110556192198
  C   6.47060092762987     -2.97556128646128     -0.06141419041972
  O   6.78827380538397     -4.14407199292350     -0.06073544569650
  C   1.59248689375760     -2.96312409413759     -0.05886670355811
  C   0.46770278740419     -3.38826929601062     -0.05935598222758
  H   4.72376361203457      4.17539092523316     -0.06446556507458
  H   4.11081605351142     -4.40562200268086     -0.05963101209444
  H   7.18137016249960     -2.14117528589982     -0.06232776588786
  H   -0.53578779333140     -3.73592962202641     -0.05974827028727
