22
Coordinates from ORCA-job 17601optt
  Br  1.27892299097684      0.25038798917694     -0.00609260390022
  C   3.13518599674008      0.04569198331376     -0.16280786054794
  C   3.79809033313816     -1.08923687763563      0.24287101534069
  O   3.27376395239937     -2.20703431844096      0.79365009305168
  C   4.36141379783475     -3.02662597681525      1.00445840671551
  N   5.48625285530923     -2.54598147659363      0.64988244368292
  C   5.16858630611087     -1.28837229352141      0.15250039136141
  C   5.95821226224848     -0.26619069047446     -0.38596802158413
  N   7.25086646237746     -0.28670817420144     -0.53791054070992
  C   8.08340015545652      0.76613484950335     -1.08959426590035
  C   9.51206764614321      0.20114781006757     -1.04311828163392
  O   9.68754367789268     -0.86589884156129     -0.36100937681028
  C   10.47677550886908      0.92158707094584     -1.72881607154792
  C   11.31509280229353      1.66983007436533     -2.24305690856861
  O   5.32430618814605      0.83841366826102     -0.78422003466418
  C   3.91255625911789      1.09486745269154     -0.71749690745805
  O   3.56985786290059      2.16466892879040     -1.13767784586872
  H   4.15034938506095     -3.98624654081721      1.44491308588620
  H   7.84682654564402     -1.05970684258646     -0.20041141328590
  H   7.98743969218614      1.67235789942731     -0.48156140174369
  H   7.76710378122438      1.01452470709596     -2.10416590380263
  H   11.90438553792946      1.94438959900873     -3.09336799801190
