25
Coordinates from ORCA-job 17610optt
  Br  1.02191143868628      0.06644854229853      1.31707611227583
  C   2.86466807788380      0.06914638100883      0.81436385043581
  C   3.50234612157008     -1.03894649289759      0.35290406510076
  O   2.95091563357393     -2.30105957232252      0.55413265703014
  C   3.40167367970951     -3.25495777084805     -0.29810628805568
  N   4.52451727985196     -3.29903885908304     -0.86134835846126
  C   5.44688252607950     -2.22320406152564     -0.45050138722299
  C   4.69409494886363     -0.91822476513283     -0.36217760836169
  C   5.06377477235356      0.36418606719083     -0.83291621659727
  C   6.02474270410298      0.53474682546281     -1.97499944907369
  C   5.93011688205713     -0.63202771833397     -2.95935884413994
  N   6.71040939028425     -1.80323477744376     -2.55918953602954
  C   6.71847051798719     -2.30426486498542     -1.27878552519255
  N   7.70564154924450     -2.91715482334205     -0.74541617531887
  C   4.37544816746841      1.51170021750341     -0.39205865154701
  O   4.52557616309833      2.67477287726934     -0.73038584769511
  O   3.38869265831001      1.30238979778316      0.62399360037903
  H   2.65571486607419     -4.02923821952663     -0.45087645225622
  H   5.79485114359668     -2.49585277557975      0.55333605841719
  H   7.07125002496213      0.62861402966051     -1.65290242891391
  H   5.77269550244145      1.47059419574991     -2.47839772866714
  H   4.88428911502044     -0.91893880623162     -3.08619101565546
  H   6.31162535770467     -0.34300940605670     -3.93996318373633
  H   7.62224344649143     -1.84362977397078     -2.98913306633373
  H   8.50344803258382     -2.94281624664693     -1.38209858038037
