20
Coordinates from ORCA-job 17613optt
  Br  9.85549395700050     -0.81473130528410      0.53721834987027
  C   8.02993759222210     -0.91645853226575      0.12293497869747
  C   7.32163978260065     -2.06950780475861      0.25533568670023
  O   7.75261466324223     -3.25812027768389      0.72058510932892
  C   6.65282064298832     -4.13826152255124      0.79597866380011
  N   6.84651973729882     -5.31214239382018      1.26453557856574
  C   5.53206752919979     -3.41612550024648      0.30705479901559
  C   5.95033087921333     -2.14232811625483     -0.05812496161351
  C   5.28963265617223     -1.01992456268085     -0.57953726714155
  O   5.97078609226451      0.15165056248322     -0.60234187769802
  C   7.33062278550827      0.27571549116147     -0.29698664725462
  N   7.85760222458441      1.42670314763400     -0.40283587520074
  N   4.07437889514480     -0.97677915101838     -1.04261019528805
  O   3.64253791753978     -2.35783868538723     -1.20047892486780
  C   3.29159843145869     -3.02735647921912     -0.07285055381418
  N   2.16988503383887     -3.01082209769979      0.48977792493759
  O   4.25261162354209     -3.87742264359203      0.38704164036818
  H   5.95990311147164     -5.81089152062686      1.25223706494384
  H   7.15731139361563      2.09341450138841     -0.71766901996463
  H   1.56870505109326     -2.37477310957774     -0.02826447338485
