20
Coordinates from ORCA-job 17614optt
  Br  1.23316493596785     -0.31115705623877     -0.04186509895595
  C   3.05218169103931      0.07514153391143     -0.03145068926458
  C   3.63214312108244      1.28750368629794     -0.03487420415866
  O   3.03011329639053      2.49973530213474     -0.03786320926291
  C   4.04320586636826      3.49008622184308     -0.03819997704136
  N   3.73481518629535      4.71544991134596     -0.04115541649100
  C   5.32101967648331      2.79966359453022     -0.03486657344744
  C   5.02367296722677      1.43640548070928     -0.03360666773539
  N   5.81966612536280      0.29095684494899     -0.03085157114419
  N   7.19184196957225      0.20402654187891     -0.02936471471078
  N   7.96763949807143      1.17946029686973     -0.02800286847606
  N   7.70728619833597      2.50391783650519     -0.02676056328229
  C   6.60361828687249      3.39423099993092     -0.03243011782182
  N   6.82102376779406      4.67183460329020     -0.03428726282349
  C   5.23004243288545     -0.98480029190550     -0.03125824267145
  O   5.83788686128773     -2.01048643957711     -0.03120619162687
  O   3.87123453168957     -1.03860510195197     -0.03145952312746
  H   2.72010627360354      4.80260526027426     -0.04282704672957
  H   8.59163909067084      2.98428175885070     -0.02608416772411
  H   7.82069822299997      4.86874901635178     -0.03158589350461
