25
Coordinates from ORCA-job 17616optt
  Br  1.19254215880251      1.74929180414493      1.16964213504945
  C   1.85427310341488      0.27982026869406      0.18573704274205
  C   1.33957473458481     -0.95613911008656      0.32463106448634
  O   0.27527514978802     -1.11411737975521      1.14856936679212
  C   0.50740753462936     -2.02783287160022      2.23918573407643
  N   0.73986880244112     -1.54445410014308      3.41499277844076
  C   0.42111808711844     -3.34894038949919      1.82162799594749
  C   0.46003480273160     -3.92400623118139      0.45406164720856
  C   1.44922015724664     -3.34489933798340     -0.48843104424167
  C   1.87513304026563     -2.06524109273837     -0.50236101753679
  C   2.93081497509367     -1.64705470566513     -1.42520097335400
  C   3.38051684987610     -0.39146950278440     -1.50232621416383
  N   2.82555784105613      0.62833555113953     -0.74773399890001
  C   -0.73201295979064     -4.45743827340386     -0.17504435107902
  N   -2.01541995420392     -5.03657183963541      0.29509166605127
  C   -1.49879187398221     -4.86013329146621     -1.11664432549952
  C   0.87834341444561     -4.62206928897078      1.76404058303082
  H   0.74126851230611     -0.52875669498154      3.35938538689378
  H   1.86866453544394     -4.00892221898678     -1.24324457178610
  H   3.36086915582624     -2.39739006633465     -2.07576043009947
  H   4.17181249843353     -0.09046175897306     -2.17510611483036
  H   3.39850780900623      1.42471682794516     -0.52138249418822
  H   -1.81591805727785     -5.99277580294670      0.60378291268673
  H   -1.87502296861501     -4.95377910448520     -2.11467161986076
  H   1.83736265135903     -5.06571139030250      2.00315884213395
