22
Coordinates from ORCA-job 17611opt
  Br  1.36312005377993     -0.27701050691566     -0.93870514096456
  C   3.23897665409721     -0.33689674639062     -0.78424951775809
  C   3.87854116439568     -1.24121583187374     -0.03652287574526
  O   3.17239988661803     -2.16986214472826      0.68602999346704
  C   3.88952420095932     -3.25059594316267      1.11920189327934
  N   5.13271697837174     -3.39636807429394      1.06417688501199
  C   5.93435914467202     -2.35967139790480      0.53874996169315
  C   5.33953552389004     -1.25570024299729     -0.01028101879082
  C   5.95505439032569     -0.10785112284257     -0.62570001501809
  C   7.33075499475076      0.19082622083605     -0.51497076491210
  N   8.32587340098133     -0.33406265518038      0.15411050308352
  C   8.35025686404881     -1.50198730163975      0.86098910683583
  N   9.28300278543270     -1.76377866561918      1.71022070506275
  C   7.37749139304102     -2.63893200018086      0.61747582837488
  N   7.78463563502156     -3.84428944325847      0.58420056802562
  N   5.25824862737920      0.83282302387342     -1.32956500485595
  N   3.92756597830318      0.57929894270416     -1.55379831758403
  H   3.22821029041966     -3.99278110646089      1.55015560367479
  H   7.59334285952740      1.08799924100791     -1.07461090671798
  H   9.88583127689568     -0.94270244074935      1.75926416800853
  H   8.78885821685353     -3.83670156456454      0.76898572509506
  H   3.42169968023520      1.41845976034151     -1.78915737926559
