24
Coordinates from ORCA-job 17623optt
  Br  1.46198239447525      0.28916179132828     -1.22622418311322
  C   3.13473193771712      0.05841681768221     -0.36083221837603
  C   3.91823090305594      1.16355168171146     -0.07770041449575
  O   3.69397738036601      2.40625941778139     -0.67201654470215
  C   4.87666930761915      3.10528103147439     -0.67425973491564
  N   5.02787582320965      4.20668686214440     -1.25533138983450
  C   5.91234931004277      2.35002377007393      0.15993399489369
  C   7.15957868175088      1.70874298278269     -0.48247588591626
  C   7.35367198996121      0.38679500580641      0.31340158993347
  C   5.95126669285110      0.03872498302749      0.78737042945351
  S   5.18718210799884     -1.51829182404036      0.73644925015222
  C   3.54572287176258     -1.27045275238829     -0.04376332746895
  N   2.84923783528338     -2.32358781901213     -0.27193209588006
  C   5.13939498603018      1.15359327530774      0.55856798457928
  O   6.23245776460995      3.15963455682133      1.33897525226492
  C   7.12344329337329      4.14025910086420      1.30220152124805
  O   7.82079092699312      4.48792136880747      0.39449486863464
  H   4.15292271562881      4.48375485805706     -1.70147614437083
  H   8.02807528218358      2.36085432641373     -0.49900408752936
  H   6.89220915417127      1.46698992432887     -1.51284549960157
  H   8.05312621602379      0.53843669744570      1.14285902757180
  H   7.77247877962871     -0.40083303305827     -0.31805263273489
  H   3.34728130280246     -3.16341421558650      0.01413641995886
  H   7.14834234246080      4.61549119222676      2.29452382024878
