23
Coordinates from ORCA-job 17628optt
  Br  1.25018987673163      0.26226267902801      0.45796877006323
  C   3.07406315889925      0.12257052432622     -0.03092553617783
  C   3.81864381997838      1.21976776307929     -0.29376952769508
  O   3.45006979460775      2.54759971232242     -0.17773308518929
  C   4.58256902006009      3.32702306769749     -0.23098209477724
  N   4.57680956861876      4.57075957754752     -0.04516560121138
  C   5.79904529443101      2.47188800453847     -0.55222110532976
  C   6.94002625205987      2.52449215679541      0.47390328465803
  C   7.89386128765400      1.36187060080736      0.23741114303221
  O   9.09031320134334      1.53201220461967      0.22696309485931
  C   7.31219835241780     -0.03412308559098      0.03157563295070
  C   5.81740202126376     -0.07689911124267     -0.15965160215009
  N   5.15807557280552     -1.17919821730339      0.10197966553951
  C   3.77329788491707     -1.13838988139233      0.00735571750646
  C   3.07626239515752     -2.35833071669209      0.07291958431927
  N   2.49869000456382     -3.36266134836507      0.13166844433358
  C   5.19894029480274      1.11002223817336     -0.55007488382946
  H   3.63170268183909      4.89571749057932      0.15523277259406
  H   6.18735199206536      2.80867041017661     -1.52130789730804
  H   6.50744472707353      2.39908447046914      1.47202958828515
  H   7.50587516551657      3.45403715523067      0.44575662674506
  H   7.58151451764721     -0.63858070054469      0.90153257188200
  H   7.83965311554582     -0.47459499425976     -0.81846556310042
