25
Coordinates from ORCA-job 17627optt
  Br  2.28030645827101      1.34395115139501     -4.01282115894746
  C   3.92315316713363      1.03459287288552     -3.09009107823434
  C   4.28629882757408      1.85546071941040     -2.05681508036635
  O   3.51383140859974      2.93821656832643     -1.68615569161591
  C   3.99400396591150      3.73398953794635     -0.70848101883544
  N   4.96375848098716      3.55779373935368      0.08898197381533
  C   5.68186492088925      2.28084769287227     -0.03267086314300
  C   7.17542898703349      2.49549421217970      0.22736150549841
  C   8.00775033399101      1.27129325657686     -0.09658789919667
  N   9.09163251187097      0.94527652399253      0.51194432054930
  N   7.57781764634247      0.49533470314224     -1.13401758510791
  C   6.37531508774811      0.65145465001667     -1.83313908323784
  C   6.02534358688692     -0.16162804271135     -2.88205539415405
  C   4.77414419646856      0.01338685820433     -3.53855606512282
  C   5.53092587768840      1.69730810516378     -1.40413296753824
  C   5.13478863921135      1.35615741098676      0.98050363160299
  C   4.70559108835024      0.51527985439160      1.72666405880617
  H   3.38556011731078      4.63070147870412     -0.63906043121316
  H   7.34450253483873      2.77422743543754      1.26872219120323
  H   7.49473557436673      3.32126361664328     -0.41205609611659
  H   9.27219079278837      1.60343352763757      1.26286467657185
  H   8.14294675116192     -0.31907117044262     -1.31758060525411
  H   6.71392229715832     -0.92544501643142     -3.22654453852959
  H   4.45433142693436     -0.65432091542919     -4.32356825437204
  H   4.31485532048276     -0.21899877025211      2.38729145293826
