26
Coordinates from ORCA-job 17621optt
  Br  1.34600397720368      0.85464658351249     -0.95059601452398
  C   3.09960369432229      0.38953057665818     -0.37874944921826
  C   3.97920167216762      1.39509808295672      0.01134435691293
  O   3.83357633169598      2.72479081241186     -0.40733387987014
  C   5.07156720864760      3.32381246581536     -0.42050805421836
  N   5.27450971475270      4.47117167980463     -0.89876159650572
  C   6.07713281593633      2.41695699355749      0.25732271222617
  C   7.26582670344079      1.80789397291776     -0.51763405142398
  C   7.40893974299169      0.37694229317235      0.08792207400535
  C   8.00450770191677     -0.62328405311564     -0.88436386842136
  C   9.43571043970803     -0.38111150835769     -1.25283171676247
  O   10.15057393446346      0.46389293318271     -0.78289244485312
  C   5.98193065317326      0.03161920809979      0.51337655795090
  S   5.10917913061445     -1.45737279150937      0.29789185087344
  C   3.43289502084690     -0.98801064051825     -0.31940254834413
  N   2.65591850223740     -1.95971053399566     -0.64394956521503
  C   5.24562590935970      1.20312756093459      0.51135392613753
  H   4.40446339996173      4.84840178524817     -1.27360661764118
  H   6.43246729747311      2.91697685872154      1.16386703278106
  H   8.18432324748874      2.39020807488169     -0.45328523615428
  H   6.98775189726343      1.71451465846577     -1.57188522153501
  H   8.07867737623513      0.43156146477310      0.95559756254066
  H   7.41717591425499     -0.67059421808041     -1.80929352450272
  H   7.95299456530302     -1.64309128719983     -0.47892468407524
  H   9.84023089287628     -1.07188132950420     -2.02282883826513
  H   3.12121225566483     -2.85708964283315     -0.53282876189793
