19
Coordinates from ORCA-job 17639optt
  Br  1.25260913469513     -0.49388355363412     -0.69357780002883
  C   3.06185965814239     -0.02729182749552     -0.94297936462179
  C   3.61180988676929      1.12202715535444     -0.49710096674610
  O   2.92475472471561      2.05726343669119      0.25327366505185
  C   3.65970194958628      2.65398406045239      1.23087821853592
  N   4.91018115461163      2.75888748350619      1.35596170416631
  C   5.71883709650649      2.25797221674543      0.23580919622290
  C   6.16170141113337      3.44855829062647     -0.52891026920589
  N   6.48879490682410      4.35230895600121     -1.15532765716564
  C   7.01280289438755      1.46421651248687      0.66233178983744
  O   7.87733683619373      1.86343052677425      1.40339187044545
  N   6.96674095093426      0.28131933239488     -0.00913603959337
  C   5.76161868322529      0.08095373357146     -0.71268436800909
  C   5.00217315897612      1.25237540729025     -0.58998086229058
  C   5.20594386655364     -1.13778190466496     -1.09885931817263
  O   5.68164990362531     -2.25544614925895     -1.17019448348568
  O   3.83182341003962     -0.97316186725415     -1.53662470969189
  H   2.99851531313362      3.08182541367075      1.97747105105606
  H   7.69114505994648     -0.41255722325808      0.07525834369557
