20
Coordinates from ORCA-job 17633optt
  Br  3.59584735883636     -0.89705974739164     -1.41333739138566
  C   2.82916455458138      0.22809694090518     -0.12924267527982
  C   3.56921133719656      1.14529503104602      0.52260371196991
  O   4.87770915443646      1.45226565010948      0.44158959855183
  C   5.16353523403124      2.51132285803341      1.34947832286333
  N   6.32665824479522      3.00072990589391      1.47788944919268
  C   3.92632929150581      2.82024169604970      1.98684684631452
  C   3.44969423156870      3.70651007805416      2.94533472797344
  N   2.18254694381037      3.70701951975729      3.30196892195931
  C   1.27544796800479      2.84899515583443      2.75918669930150
  C   -0.07259858864560      2.99456292441995      3.27958931105761
  O   -1.06668778244198      2.36206161167634      2.98755938963948
  C   1.64716346105450      1.87853118506325      1.74987920867555
  N   0.88397258525756      1.01150709235021      1.15460079647533
  C   1.38727749425479      0.13454111544229      0.19702766180363
  O   0.67857514219455     -0.68301205189401     -0.35777845594259
  N   2.98840862180342      1.95160519566811      1.44264181277625
  H   6.98198689286196      2.53310467584893      0.85749726944042
  H   4.12228830239035      4.41400610798574      3.41385383935457
  H   -0.11653044749644      3.80567505514722      4.03381095525871
