24
Coordinates from ORCA-job 17635optt
  Br  0.88985758556574     -0.58030866539082     -0.23286441819349
  C   2.73887407462228     -0.20893290845246     -0.11509129006403
  C   3.66949976951781     -1.19027846274892     -0.14968315538009
  O   3.32636840831893     -2.54061101264442     -0.25908001996768
  C   4.46819058867145     -3.27432083737614     -0.23657339252159
  N   4.51035649511486     -4.53171389373903     -0.29438693459459
  C   5.69176790789751     -2.36471616939907     -0.10903455470951
  C   6.55543628512570     -2.75987843169490      1.11309940036459
  N   7.54457834172457     -3.70529152118982      0.59161391282262
  C   7.55002552790946     -3.60582652549073     -0.81538159103295
  N   8.23605761715591     -4.28187348176984     -1.64623305149176
  N   6.68406477193872     -2.59659017847220     -1.15936937041591
  C   5.05670129029448     -1.01735838431528     -0.07592667678919
  C   5.70991629070688      0.22162240785668      0.03046362426769
  C   5.06681860287408      1.46283053863528      0.09388242850037
  O   5.53659768606308      2.58835671093945      0.18370433101282
  S   3.19418084869407      1.47107769475022      0.04276024177939
  H   3.57048984405921     -4.91799912667823     -0.37270192503808
  H   5.95657828211395     -3.20280920962734      1.90591208319258
  H   7.04783795063184     -1.86230274214095      1.48993944238962
  H   7.39084388179524     -4.66111990588050      0.87909807079009
  H   8.86814185155321     -4.90080844503261     -1.14697866623776
  H   6.42045434710821     -2.52087408119615     -2.12917041423091
  H   6.79336175054270      0.25872663105784      0.04500192554777
