25
Coordinates from ORCA-job 17632optt
  Br  0.55807687601627     -0.47613839909339     -0.53806832328694
  C   3.01301011208981      0.22336689599364     -0.31772456608544
  C   3.73902102537887      1.35010706658515     -0.10698278427653
  O   3.12209846864815      2.60415365156670     -0.13482493305916
  C   3.92692153941527      3.65979434215329     -0.30692477307232
  N   5.17925313597124      3.73601240964398     -0.16188742412215
  C   5.86895293551599      2.55956512940582      0.33656349421855
  C   7.31071960356425      2.44375944497765     -0.19183662378634
  N   7.96379076158433      1.26124442990950      0.37385787836991
  C   7.29435086934450      0.00271608891595      0.02071582819315
  C   5.79382971817443      0.08386917377404     -0.02691722781107
  C   5.05729507936705     -1.13141453459987     -0.26162053654367
  O   5.55387341955593     -2.25381281873878     -0.36560235180425
  N   3.68088868083879     -0.94488381853452     -0.35296686882976
  C   5.13101945438652      1.27471024132170      0.06855055900821
  C   7.33838155248230      2.39323032390935     -1.65701701925239
  C   7.33168318856667      2.33277373666147     -2.85255236556115
  H   3.35336554255501      4.53336866610098     -0.60271431903089
  H   5.97016573211024      2.68627148165248      1.42328410648129
  H   7.86487682017390      3.33071662971472      0.12463048966894
  H   7.96145734870448      1.36615797489755      1.38215766594434
  H   7.61175261103017     -0.76630483167035      0.72658501906017
  H   7.65567524999418     -0.32501973629477     -0.95885694772936
  H   3.12880733155895     -1.78416199753193     -0.49612748504139
  H   7.31573294297244      2.27391844927958     -3.91372049165173
