20
Coordinates from ORCA-job 17646optt
  Br  1.08252397197246      0.48949518595424      2.21590153375794
  C   2.54669993917459      0.46239448133717      0.98647377867407
  C   3.52853464648275      1.48093835986289      1.14587012684436
  O   3.10264498397648      2.86316516246821      1.21192121274235
  C   2.22513212935704      2.96403287140093      0.17478731950253
  N   0.99670660117781      3.26903466453360      0.32786699115538
  C   0.18128232240709      2.40829954719146     -0.44281767880763
  C   -1.04887422578532      1.94399487339297     -0.10623734369877
  O   -1.09311071754067      0.59681072534300     -0.40136649918112
  C   0.13437040804296      0.33872988036919     -0.92704930512699
  S   0.97863822775666     -1.19295514339134     -0.72856450250397
  C   2.55591260162414     -0.39579212729068     -0.11570195315852
  N   3.55198006743790     -0.64948860812124     -0.92300305086080
  C   4.81060106003695     -0.18127864310562     -0.72312363180363
  N   5.82529856608285     -0.64903564881588     -1.33948907038923
  S   5.07706727554479      1.23462085885024      0.40457532318982
  N   0.82421422712594      1.39163934922930     -1.13926698292539
  H   2.63178605605901      2.54680290551129     -0.74402697067616
  H   -1.87957094922656      2.34613870905921      0.44237230345188
  H   6.67316280829309     -0.15554740377897     -1.07212160018611
