21
Coordinates from ORCA-job 17640optt
  Br  1.38173046631202     -1.55697375916742     -0.33957312854227
  C   2.98666683778251     -0.55486845915818     -0.03484349181012
  C   2.97366995433696      0.80121841110286     -0.29206341959840
  O   1.88902296153009      1.27654709527313     -1.02363866604821
  C   1.09991362801105      2.28368323119225     -0.55313592635524
  N   -0.16055125441376      2.25747240618401     -0.66680570358906
  C   1.81258827636232      3.43628069627181     -0.06950191795290
  C   3.17097647324404      3.70087257133928      0.05516496228538
  N   3.28376001034966      5.04424866562890      0.34283360229423
  N   2.10782437679579      5.57430379941828      0.39706626373769
  N   1.21446520332850      4.63012545264425      0.16304759149133
  N   4.25846216108777      2.89996663972784      0.03558647862191
  C   4.12734325194950      1.58519954001488      0.01750204122564
  C   5.32130179758228      0.80536652656664      0.40250835997990
  N   6.49202883788672      1.34318160937261      0.62578253491720
  C   5.15637656129697     -0.60498112758739      0.56543314504303
  N   4.03017432471133     -1.25952358187175      0.38863970035750
  H   -0.44478003299371      1.36505648467826     -1.06829608165185
  H   0.22849121842625      4.83005478992020      0.12151878025041
  H   6.39763348290430      2.35138564168622      0.48203364775919
  H   6.02790146350937     -1.17361663323672      0.87174122758464
