22
Coordinates from ORCA-job 17644optt
  Br  1.58281817194996     -1.28643021461984     -0.65512724409332
  C   2.98552789673731     -0.22070990770584      0.01537255205354
  C   2.95159422891961      1.18594107754972     -0.02512317782460
  O   1.97936516090989      1.85068310829272     -0.78005819440648
  C   0.75192963103404      2.29150745023193     -0.30265964632919
  N   -0.32666569172833      1.68403188761478     -0.49684193153320
  C   0.79618854562107      3.66580495320577      0.35925854674619
  C   1.20651002838291      4.76730602783392     -0.63223987493107
  O   2.63693901347496      4.66451703188087     -0.62363262833499
  C   2.90464368746452      3.88530298597866      0.47234795803442
  N   4.12285206232903      3.29474017366179      0.51888144432220
  C   4.04524135932926      1.85908601887759      0.53674825729682
  N   5.09358160940779      1.29299585247072      1.08664856909787
  O   5.15140783088771     -0.10317705547286      0.99683853774910
  C   4.11172228483412     -0.90303168992076      0.53603246369266
  O   4.29594504771295     -2.10061982076512      0.61285345441771
  N   1.94078088547641      3.58882313185261      1.24987860538473
  H   -0.14147651120365      0.78221168644500     -0.93875383756702
  H   -0.15340684757485      3.85104800192377      0.85326627448174
  H   0.90794725533547      5.75518535951658     -0.27442293211672
  H   0.85657248373544      4.60838562259111     -1.65023636678492
  H   4.81598186696432      3.66439831855684     -0.11503082935547
