25
Coordinates from ORCA-job 17651optt
  Br  1.08066950704676     -0.55136379257776     -0.38747602405601
  C   3.07202131173423     -0.25781184063344      0.26064221223173
  C   3.85788629428109     -1.40678869562369      0.31251677773911
  O   3.37147981905139     -2.53628797534557      0.96531722762922
  C   3.24801000963564     -3.64283194321019      0.16016440520576
  N   2.15828143674591     -4.02890657925259     -0.32890148096692
  C   4.53026658615291     -4.42917771501219     -0.00488734669970
  N   4.41976528134527     -5.51424119936646     -0.96333968406095
  C   4.58444812369033     -4.92561865527435     -2.31508157570672
  C   5.29896796478427     -3.58044550017298     -2.10111227663054
  C   5.68159367046834     -3.61581240992556     -0.62207550844681
  O   6.00523142432038     -2.37199278818465     -0.04086749637848
  C   5.13589790144085     -1.32705787840155     -0.19885502379059
  N   5.63702663792939     -0.26957385406232     -0.81675342315905
  C   4.89818972346166      0.85149016403421     -0.88870398974827
  O   5.19556362138947      1.89709822927969     -1.40227669302644
  O   3.60733698473408      0.83786700702722     -0.26610594693292
  H   1.42461485062738     -3.35326595701901     -0.10459465638971
  H   4.81573889970422     -4.79157869364734      0.98683829057777
  H   3.50013469015150     -5.93116703768869     -0.88275668495043
  H   3.61829270696577     -4.77364697009569     -2.80112886587688
  H   5.17586158327223     -5.60291922330809     -2.93294196940148
  H   4.61864426453066     -2.74461440272033     -2.27354475668935
  H   6.16727289213050     -3.44207348063415     -2.74181895806348
  H   6.58180381440561     -4.21527880818441     -0.48825655240884
