19
Coordinates from ORCA-job 17658optt
  Br  1.59607607929442     -0.89080474742044      0.30679056401640
  C   3.43919871190760     -0.46972663323487      0.05990802607003
  C   4.35327274085517     -1.48433839919594      0.00261719146978
  O   4.46835619012813     -2.85211920240772      0.06616048366087
  C   5.83244006148040     -3.21937132412548     -0.08612771355164
  N   6.22536316938250     -4.41143546355268     -0.06123911389600
  C   6.56379733430477     -1.95365837455396     -0.25779768576831
  N   7.71759442880007     -1.32771637231116     -0.44931481847406
  N   7.44968756962448      0.00890738743761     -0.49196947546892
  C   6.12663043910351      0.19565679677851     -0.32526144950641
  N   5.60678217771529     -1.02976624723542     -0.18376680305465
  C   5.08698413369850      1.21833166348689     -0.24112112020144
  N   3.79936944064610      0.79399738038950     -0.05442690410050
  C   5.33729898861013      2.62895765834543     -0.33575580849560
  O   4.47005577400725      3.50386625014158     -0.24302321207400
  C   6.73084720283145      3.00908113944990     -0.55859546627453
  C   7.87069369257137      3.33728477743262     -0.74288319152890
  H   5.44195852006152     -5.04550373668384      0.07989408528912
  H   8.88859334497726      3.59335744725948     -0.90808758811124
