22
Coordinates from ORCA-job 17654opt
  Br  2.66573031680341     -2.24583696789560      1.84580572479117
  C   3.94493919926969     -1.55657070439850      0.62082032480027
  C   5.28374645302983     -1.50886525015493      1.01500235811393
  O   6.10628154471735     -0.75612227668947      0.19396612140128
  C   5.87841365586196     -0.85694143285233     -1.15495514090840
  N   7.09616934529973     -0.85171725372628     -1.91192586243645
  C   8.12758049703575     -1.33889426156105     -1.11972220689635
  N   9.23944108591282     -0.80544793321591     -0.74874983334133
  C   9.57087071718816     -1.52755482442109      0.40531703408770
  C   8.58529086990942     -2.41994174484509      0.66897159511089
  O   7.75317451444296     -2.41024087017678     -0.41631027527855
  N   8.18447055575697     -3.11627940079838      1.77794531334504
  C   6.93155024194793     -3.21605735537756      2.05233676505905
  O   5.84367220695410     -2.80707574347493      1.42135389533795
  C   4.64096583598017     -0.99821629099922     -1.61352166721014
  C   3.50859315778807     -1.11074554591254     -0.65545354711169
  N   2.26319493267943     -0.93578048209652     -1.00119456931037
  H   7.33130994724035      0.03200346530504     -2.34135938793057
  H   10.42181077787547     -1.27388849655732      1.01177294691457
  H   6.68118543897403     -3.80920162056837      2.93078908364872
  H   4.45794706894946     -1.11989474541558     -2.67215387317558
  H   2.22366163638238     -0.67673026416745     -1.98473479901114
