22
Coordinates from ORCA-job 17663optt
  Br  1.04093205224222     -0.26441659611009      0.18596216114796
  C   2.91705580002976     -0.16814156969683      0.09896890917200
  C   3.71506121926753     -1.30228626816178      0.05598035189074
  O   3.19042299348305     -2.59628976249054      0.02626135502103
  C   4.23844142025755     -3.45015541498032     -0.05007741687720
  N   4.15595153366111     -4.70412401802844     -0.10298177719441
  C   5.56254719353937     -2.67760057273988     -0.04031548304323
  O   6.38740257755896     -3.07037753379948      1.07573841598502
  C   7.18749973923810     -4.12229477835695      0.63968042346203
  O   7.42544559189842     -3.90484579570327     -0.74819946721418
  C   6.43962672892169     -3.11488496986326     -1.22897007546819
  O   6.31578649117530     -2.85029114004713     -2.38029718377873
  C   5.08970564531916     -1.28715113689305      0.00656265740145
  C   5.77728480510547     -0.06286618187832     -0.03529646201833
  N   4.95588819468989      1.07721603094194      0.08981366784632
  C   3.56249029546348      1.11726754300229      0.10442879283757
  O   3.00096896778944      2.21136733084527      0.12586551914259
  H   3.18032393353763     -4.99759326216505     -0.06985900667332
  H   6.68657590981991     -5.08726470485452      0.75319745705769
  H   8.14029581958504     -4.09317224575406      1.16639198095870
  H   6.81985064353298      0.05548131361806      0.21690265860892
  H   5.36244244388378      1.99342373311549      0.00024252173555
