19
Coordinates from ORCA-job 17661optt
  Br  0.96351131691153      0.28575795354246      0.03348293806730
  C   2.83427393528334      0.08477760193505      0.03415794054294
  C   3.65805699253757      1.14901525295111      0.03569619546283
  O   3.35047566988194      2.48996479104687      0.03692967664522
  C   4.54254391531394      3.22137981638128      0.03785544887607
  N   4.57657047269173      4.47316383189704      0.03871801087516
  C   5.65344058285357      2.23465914955895      0.03744095948502
  N   6.93309901460509      2.45008866787029      0.03815166797406
  O   7.67590084975621      1.27197234613837      0.03735835991663
  C   7.18918999390876     -0.06182393159833      0.03528931734093
  O   8.03954180227301     -0.90155891195757      0.03428111594522
  C   5.74775672943754     -0.21716535560523      0.03484236618961
  C   5.05627734737243      0.97964379530952      0.03603736631597
  C   4.98050791070235     -1.42806692155199      0.03321589891509
  O   5.41012627217258     -2.57212394539723      0.03206884746976
  C   3.42957985087360     -1.25596044052248      0.03313538943343
  N   2.69928497166466     -2.29935828736196      0.03215373902921
  H   3.63022642953997      4.85166149124127      0.03862862327550
  H   3.33563594222013     -3.10302690387743      0.03155613824006
