25
Coordinates from ORCA-job 17669optt
  Br  2.31597906317031      0.66358452768586      2.67458094127333
  C   3.66553155534844      0.15563917668260      1.40749561524049
  C   3.37546785887818      0.26041132124100      0.05090127237769
  O   4.46181621208521      0.19479037188551     -0.80275551803954
  C   5.59034670959834     -0.52777318429319     -0.47532727526135
  N   6.53414878423877     -0.60231140998244     -1.32451224746319
  C   5.59691734346010     -1.14400099393998      0.84118698755003
  C   4.78775277804089     -0.53354337207297      1.83041611299188
  C   5.95267525717224     -2.53419005206192      0.94189429021400
  C   5.60728863975937     -3.45832925918718     -0.00528526962220
  C   4.74293238847660     -3.08282638500007     -1.15869501453722
  C   3.57360091063956     -2.49504049187896     -0.93264549540848
  O   2.79197078668143     -1.93347919724152     -1.91266159592136
  C   1.89531318121793     -0.96860657155701     -1.50725461952395
  C   2.10327064413122     -0.00965533590531     -0.58468412656017
  C   6.02664967386888     -4.81306806631416      0.11424921048779
  C   6.36527880557859     -5.96790901444698      0.19808697654933
  H   6.24407599354286     -0.13115598323373     -2.18041313296999
  H   4.90748007486915     -0.78040747623819      2.87980765446854
  H   6.40486709847792     -2.90220118958183      1.86133072437976
  H   5.12831136872365     -3.15944390914341     -2.17013518261781
  H   3.18581133193161     -2.36978592264110      0.07435875936319
  H   0.95168185082275     -1.06022851139892     -2.02915361767282
  H   1.23372248831997      0.56373417377920     -0.28392331546466
  H   6.66810920096591     -6.98320324515526      0.27013786616670
