22
Coordinates from ORCA-job 17666optt
  Br  1.35562131717463      0.03626993192463     -0.59549405057711
  C   3.19823512381119     -0.22820027860468     -0.36230551866378
  C   3.74232340082570     -1.42526366553778     -0.13634397461720
  O   2.97995777602623     -2.54873355772609     -0.05645384836546
  C   3.56715995062832     -3.78485443703915      0.21424741450976
  N   2.80552191248371     -4.80465797343235      0.31945805845185
  C   4.98865530353288     -3.76649146508954      0.33894742290651
  Br  5.84606699788284     -5.42208720360029      0.67818421497427
  N   5.76525478849738     -2.69910751010843      0.23687999173568
  C   5.18182683277815     -1.51797014393536      0.00048335191384
  C   5.91179412815251     -0.34315004970973     -0.09401066046584
  N   7.30551373900095     -0.41530518536212      0.10426243566925
  C   8.22280863449358      0.08677606731235     -0.78368688346671
  N   9.47686053828167     -0.12630327390570     -0.81396459380746
  C   5.27686505594258      0.93817014137354     -0.21750876747965
  N   5.77290395455229      2.11212318878203     -0.16533405250865
  O   3.90693937821020      0.91522389604285     -0.44845263660801
  H   1.83937399747003     -4.51350829013211      0.18525363026947
  H   7.58668108682077     -1.25022994911959      0.60611208770744
  H   7.78821707824016      0.76616854011439     -1.51653134207298
  H   9.75183443181039     -0.78052307539588     -0.07939688511922
  H   6.76758457338362      2.05465429314906      0.02565460561400
