26
Coordinates from ORCA-job 17672optt
  Br  2.71304133298736      2.68385635752283     -2.77523723985322
  C   3.77239714503492      2.38603814802058     -1.22147625798491
  C   3.19239232419117      1.65235161672433     -0.11447159125041
  O   4.13563704649569      1.12628620416287      0.77181048138278
  C   5.37731212352636      1.69627459988509      0.93063998988567
  N   6.13808660408588      1.11219034355665      1.78032600257569
  C   5.62968790671415      2.89846290300456      0.17531162161506
  C   4.84075888719240      3.23563133161765     -0.90254797107403
  C   4.98199459258871      4.60953446259043     -1.51987496077930
  C   3.84617650320770      5.56520413303084     -1.10239178914876
  O   3.97494370027894      6.02887547663731      0.24345526374105
  C   2.76104500605256      6.09900658903604      0.98908057303604
  C   2.17491491245855      4.72342019155621      1.10897708118596
  C   2.86336205075454      3.61156938761848      1.41226701906750
  C   2.27741640890925      2.62039985616735      0.55143467534431
  N   1.16328329701289      3.05923836317995      0.01508458064043
  O   1.09366427743335      4.41656744953814      0.36019757363693
  H   7.03611834574489      1.58765554686446      1.77937382022136
  H   6.41173056959596      3.56009801463921      0.52170190158269
  H   4.94979899583795      4.54855754191468     -2.61009648580674
  H   5.93955241837021      5.04899164846575     -1.23252397784986
  H   2.88718096836428      5.06372876447297     -1.24734918495574
  H   3.86521654060005      6.44218346121898     -1.76018378562402
  H   2.03995906550415      6.76985263871527      0.50905004889780
  H   3.04217548092418      6.51078012421991      1.95734092561636
  H   3.80615349613359      3.55124484563909      1.92310168589733
