28
Coordinates from ORCA-job 17675optt
  Br  0.91344559829838     -0.86939491069882      1.32728039877707
  C   0.64332139018451      1.14056076811209      0.98522741705749
  C   1.88196878458709      1.81564715387003      1.04567065764616
  O   3.03214338601575      1.40319921442575      0.50663442699418
  C   2.88276601746024      0.81058090558876     -0.78125553819123
  N   3.89366584916672      0.22898084193391     -1.31312093086612
  C   1.60524349687841      1.07560153715398     -1.33148233029468
  C   0.57133207424612      1.46734772233988     -0.47184269420669
  C   -0.63945846013900      2.06774312574125     -1.07651566223358
  N   -0.92182761690514      1.90426313591204     -2.30448200651950
  O   -1.50695352920393      2.78948289560236     -0.29325375652382
  C   -1.04134815028866      3.67986214037092      0.69627620091905
  O   -0.65796504615550      4.91788390695838      0.15885639039578
  C   0.65581462164384      4.98961141618375     -0.36683933186116
  C   1.74321086188471      5.22397705948737      0.70054724027348
  C   2.68098192191637      4.05544953974941      0.95344119887103
  O   1.97758563682620      3.01626546994732      1.64079497849477
  H   4.68057533273505      0.25535726585930     -0.66813473802708
  H   1.46831498930887      0.97884386250965     -2.39712804471734
  H   -1.77708957423514      2.41726432141855     -2.51305525634182
  H   -0.24887160351961      3.22213666969087      1.28098728096177
  H   -1.91006361241847      3.88366349407004      1.31837568447107
  H   0.63307758950952      5.83879269425610     -1.05032064682682
  H   0.88746209197149      4.10128933626880     -0.96274922066709
  H   1.25549502393021      5.50900868937325      1.63553328087111
  H   2.36515100410902      6.07151702433589      0.39734140050335
  H   3.08593875183238      3.66709104493125      0.01722453402490
  H   3.51608317036053      4.36297367460787      1.58598906701569
