27
Coordinates from ORCA-job 17679optt
  Br  0.29598905368764      0.41385005726081     -0.50709888672015
  C   1.91852225051250      1.17807724997407      0.11822294806131
  C   2.98561675172374      1.45890735193881     -0.79193909622961
  O   4.26041991652339      1.38537123035198     -0.22494347699700
  C   4.42315609866017      1.93335382652456      1.04706616597168
  N   5.59275653378010      1.97512430963531      1.55779670034077
  C   3.22730257117518      2.43553250739949      1.67099883359790
  C   1.97632158447838      2.03311476988190      1.24561174261427
  N   0.80975573105055      2.57364132162493      1.82947825652667
  C   0.00901229314170      3.47820426651246      0.97518813227232
  C   0.64693875722619      4.85304174267376      0.62441734127655
  C   0.55869158088086      5.28665134330205     -0.87152678296131
  C   1.66247157270112      4.57955057360093     -1.61052893472459
  C   2.88722331123241      5.07198081535801     -1.95803137771698
  S   4.03325972384162      3.77136884273979     -2.02391433001634
  C   2.75977632541872      2.65833797796720     -1.54302123815797
  N   1.57779997560358      3.23175016517753     -1.52574888134251
  H   6.26668231398791      1.65907043753016      0.86262919179286
  H   3.35053875349791      3.14283504274876      2.47848405134394
  H   1.05160267724588      3.03316175943940      2.69921273529507
  H   -0.22015506555618      2.94548567643793      0.05848440087726
  H   -0.93383545301559      3.64138453657776      1.50260543145279
  H   1.70773633189815      4.82263540660365      0.89131687391412
  H   0.18521479132403      5.62927160341284      1.24207789424145
  H   0.67558204558061      6.36940325224136     -0.94888946550324
  H   -0.41966428125488      5.01851712820757     -1.27919468302539
  H   3.20128385465426      6.10037680487691     -2.02875354618389
