25
Coordinates from ORCA-job 17670optt
  Br  1.23672653562992     -2.72169984424232      0.18138102982996
  C   3.10408128432931     -2.50351113731252      0.18946201666531
  C   4.10773134166746     -2.63157287199141      1.30903749539461
  O   4.27239860778563     -1.38695355281283      2.04320154985624
  C   5.21936334715662     -0.91316535098990      1.18583481527856
  N   5.84004065247659      0.16719497857353      1.32592587070084
  C   5.16865499935911     -2.08131636282301      0.21776601625062
  C   3.95166512490769     -1.98839066612335     -0.69281759058692
  C   6.33727246687288     -2.88012989428927     -0.19208737816105
  C   6.44993074993371     -3.46151148551468     -1.39093707680746
  C   6.90624578253549     -4.87444548408346     -1.51018541602041
  N   7.73488182581967     -5.36958409501632     -2.39920322633452
  C   6.10784261085358     -5.71890355789129     -0.65884435270007
  N   5.34919854238082     -5.18686377673154      0.27939645470731
  C   4.35956589645129     -5.71368105146629      0.99371157821498
  C   3.69369616868897     -4.92904756598551      1.88531700366855
  O   4.14542584612014     -3.63726519808367      2.20097679815609
  H   6.50328694221995      0.26239734269653      0.55980090630538
  H   3.82372099690888     -1.56271532936519     -1.67702710161703
  H   6.93477087825554     -3.25532064380025      0.63098873286698
  H   5.83519066810991     -3.10460276814677     -2.21670735518915
  H   8.13451024619541     -4.60411731776284     -2.93830312066589
  H   6.11682635111806     -6.78921414356284     -0.89027345281646
  H   4.01714606254111     -6.74883732987832      0.87667766482526
  H   2.90182607168219     -5.26574289339644      2.53590813817828
