25
Coordinates from ORCA-job 17683optt
  Br  1.23448249918104     -0.78007826498725     -0.39579590004431
  C   2.17724658813663      1.48099832856685     -0.07843815549157
  C   3.20323001552644      1.45830836947119      0.92508099731136
  O   4.48380359967036      1.14292312531931      0.73729021047221
  C   4.90071321308659      1.14781058438790     -0.60926884309069
  N   6.07865484286737      0.74272908152794     -0.87106467587573
  C   3.99427617849312      1.70111813265787     -1.58397936529591
  C   2.66047101591825      1.95912989027801     -1.31958778538396
  N   1.93456399641327      2.68264939068346     -2.27826414236551
  C   0.70498072718122      2.94396401770887     -2.17840480671042
  O   -0.17456597109937      2.49102395852781     -1.24709625643627
  C   -0.37567423264311      3.15131762259301      0.01030923397074
  C   -0.86541375486164      2.05405001387164      0.95958136140190
  O   0.28648387171315      1.57971148266733      1.63777343324881
  C   1.41768218990463      2.18009692346550      1.07554041028976
  C   0.93112222310917      3.56511924641066      0.67474940551128
  N   2.62261664442363      2.03874657618691      1.92605201627228
  H   6.53512597278449      0.44473517019261     -0.01122241275068
  H   4.41568857418519      1.90827738005357     -2.55544260723764
  H   0.23488182233612      3.53077867315468     -2.96800452885088
  H   -1.09298297549822      3.96478497645086     -0.12353108340942
  H   -1.32131159054100      1.24491715030598      0.38624078679140
  H   -1.57313048431497      2.44378645597837      1.69641517736207
  H   1.61631309108779      4.10112222758810      0.02057427225878
  H   0.72074194293982      4.16197948693876      1.56449325805241
