23
Coordinates from ORCA-job 17696optt
  Br  0.91728394217496     -0.34429427009010     -0.08360483432602
  C   2.79562365964349     -0.13808702314831     -0.07599491342146
  C   3.64734796008605     -1.22576745175731     -0.07187063818907
  O   3.18064849734438     -2.53477193528403     -0.07092909141549
  C   4.24601994369237     -3.38913739543797     -0.06673383644098
  N   4.12803579013825     -4.64343010639808     -0.06467681322456
  C   5.54372338149986     -2.60764239442727     -0.06504549381358
  C   5.04688972127296     -1.20226081554405     -0.06843197559564
  C   5.66056894566029      0.07163347326634     -0.06902184346029
  S   7.27659902571936      0.74976670481949     -0.06691523662671
  C   6.68108013343630      2.45302786361667     -0.07097175203058
  N   7.36453778180703      3.54251089684512     -0.07147219631284
  N   5.31073670810586      2.39604180710660     -0.07339289082263
  C   4.24036254888594      3.29682925901621     -0.07739588853945
  C   3.06170505903446      2.53822930180195     -0.07892241066055
  C   3.39290355662523      1.16350909161470     -0.07595089402763
  C   4.79360189745452      1.12922291943517     -0.07247751274180
  H   3.14099304438406     -4.89775212992814     -0.06660174730422
  H   6.13778084144473     -2.88885579604614     -0.94234503397871
  H   6.13405339085836     -2.88621564118933      0.81559137573994
  H   8.36044557263759      3.35187686645036     -0.06927723038543
  H   4.41446351070454      4.35659898964995     -0.07857066544082
  H   2.06559508738936      2.95196778562818     -0.08198847698148
