14
Coordinates from ORCA-job 176optt
  N   -3.20426528215051     -0.40024759102260      0.00000024990320
  C   -2.46090268072500      0.71659324881567      0.00000011915481
  C   -1.08197119482574      0.71282797682306      0.00000030016761
  N   -0.33613684281003     -0.41688573217600     -0.00000054793075
  C   -1.03751655427676     -1.55817699242077     -0.00000033651873
  C   -2.47848472097149     -1.55514955803939      0.00000015515205
  N   -0.37238220386706     -2.73944346688359     -0.00000076636045
  C   -1.10281613846313     -3.84619689424611      0.00000020193007
  N   -2.42455435557102     -3.96653687429902      0.00000017384300
  C   -3.10032795962230     -2.80258051481685      0.00000007027590
  H   -2.99683064622203      1.66220884805271      0.00000007982697
  H   -0.53948320524176      1.65370614066476      0.00000021286619
  H   -0.54204232176409     -4.77908069203128      0.00000070425174
  H   -4.18528589348909     -2.84403789842059     -0.00000061656161
