22
Coordinates from ORCA-job 17701optt
  Br  1.19898695007764      0.52913546162353      0.42873474902203
  C   3.03778429862638      0.32261206803488      0.19578821925397
  C   3.90990145027069      1.30839836257437      0.00344484727797
  O   3.67445969509605      2.63418785338493     -0.05033637823692
  C   4.92578598522198      3.26749605242343     -0.23897376106786
  N   5.01975449791830      4.52197201185384     -0.31979239598919
  C   5.94353921970633      2.22928899967404     -0.30736134202666
  C   5.31666722114753      1.04080700133494     -0.16507427494365
  C   5.74694116820016     -0.33872136238844     -0.14909065089723
  C   7.20259329081624     -0.63565839635423     -0.28876025079238
  C   7.92549263203691     -0.30164132347454      1.02432369991200
  O   7.66644374942407     -0.98361701168239      2.04540170557304
  C   8.85001471697061      0.78424477556178      0.98094229015722
  O   9.09639628411626      1.50268048058072     -0.02211378393302
  C   4.77356429285605     -1.24112816722543      0.06732094240553
  Br  5.03706615937459     -3.09629238349682      0.16402511331381
  O   3.44760569004487     -0.96933485813526      0.24121673188050
  H   4.10307408555420      4.95401368359471     -0.22504647888081
  H   7.00506936124882      2.40750711736508     -0.41549338792143
  H   7.62036717948221     -0.01596092693607     -1.08460631162910
  H   7.36125144096901     -1.68937203389974     -0.51627926373445
  H   9.36224063084074      0.96638259558665      1.94172998125663
