23
Coordinates from ORCA-job 17709optt
  Br  1.25988802199023     -0.16658956816756     -0.45437772478365
  C   3.15442502168379     -0.05388552570812     -0.29054397864362
  C   3.76950254319973      1.17078714557655     -0.08800768697016
  O   3.23378011590327      2.42137751350804      0.05459257123055
  C   4.28783463972320      3.30904696730480      0.28456315847011
  N   4.09211045642503      4.56339688025567      0.44507801071498
  C   5.50822603626414      2.55151783960762      0.29763442558632
  C   5.15787477843115      1.24191820944118      0.07081052131158
  N   5.88384579937921      0.06028021301406      0.04237643081469
  C   5.18756172563769     -1.10338812996508     -0.40919656991143
  C   5.94762617885331     -2.37946027885430     -0.25734218436975
  C   5.27737366832005     -3.48265862114492     -1.09707911368095
  C   5.51034775307408     -3.28705918261110     -2.53384210808573
  N   5.72271995387750     -3.16237924520045     -3.65236325517805
  C   5.73559915181101     -4.81804004192215     -0.69465463620385
  N   6.10462655252022     -5.84656164089954     -0.35069402669017
  N   3.85724596093638     -1.15864855980364     -0.43397251524181
  H   3.09720735730124      4.76314664661620      0.38059550794176
  H   6.48063985552070      2.97828898225967      0.46981515430167
  H   6.84720352810202      0.13859388835459     -0.24847000065883
  H   5.96477774654151     -2.72717883469178      0.78769441376819
  H   6.98834196556014     -2.26687000838659     -0.57157586684910
  H   4.20024118894429     -3.40163464858315     -0.91704052687273
