23
Coordinates from ORCA-job 17719optt
  Br  0.95280196589760      0.25336629743968      0.59461726576123
  C   2.76574888103934      0.07405839625135      0.07634976385821
  C   3.55735687844918      1.20414102089259      0.01461939646435
  O   3.21761719482457      2.51601594209146      0.13985618138133
  C   4.40189346491739      3.26739731719409      0.08161633644018
  N   4.38667323821876      4.54374373266019      0.16214097024954
  C   5.49524616924181      2.35421235739300     -0.07590172759022
  C   4.94439543191574      1.09633475801788     -0.11545461229788
  O   5.55761983958334     -0.09155451919577     -0.20538842376879
  N   4.75810905330488     -1.27787360797517     -0.26669052382578
  C   3.44331142654722     -1.15017178878855     -0.06956644357983
  C   2.77662213924949     -2.46822013822030     -0.04746937769444
  C   3.39451690310853     -3.55652116287590      0.57146838356516
  C   2.77749298023287     -4.79493645306342      0.54737690051746
  N   1.61030303757715     -5.03838196018614     -0.04952529584068
  C   1.03310751617931     -4.00182981808585     -0.65610434344651
  C   1.56330571184477     -2.72233123251155     -0.68818401148751
  H   3.42861436211186      4.86574098245407      0.27473655688966
  H   6.52862626745743      2.64351633938892     -0.13367494831935
  H   4.34997691282642     -3.41963178961311      1.05763319128217
  H   3.24868812074538     -5.64245862752466      1.03515384202254
  H   0.09105382626705     -4.20480144939944     -1.15596042070466
  H   1.04591867845988     -1.93781459634337     -1.22164865987618
