22
Coordinates from ORCA-job 17715optt
  Br  1.16402548017887      0.22129740501594      0.99994122635288
  C   2.94713944781195      0.11364770558539      0.41257996316003
  C   3.74850820467783      1.24820328098170      0.26398090150029
  O   3.40733512532813      2.56165111484498      0.34005414367058
  C   4.56183102993726      3.31763340193619      0.07225102553215
  N   4.53575129794812      4.59982172272917      0.07197168886437
  C   5.63373778970630      2.40201880865360     -0.16486396395116
  C   5.10253723413856      1.13124136328705     -0.03585457444269
  N   5.66108228171692     -0.13365377948747     -0.07316230205332
  N   4.85572511843248     -1.27242569152529     -0.17175817770168
  C   3.58363633620424     -1.09762050624141      0.13677718396373
  N   2.86131528370578     -2.32251635751928      0.19867453791921
  C   3.18790022547926     -3.36739269140334      1.00621396181896
  N   2.47703831685665     -4.41296832919920      0.81168667243292
  O   1.59992052718057     -4.04770126160785     -0.23130404535921
  C   1.86318916516055     -2.77139207990902     -0.64609392708927
  N   1.31756854496453     -2.15306866653321     -1.59886357045719
  H   3.59483136670572      4.92060840479892      0.28424136256267
  H   6.64518654282567      2.69924719800391     -0.37825175510895
  H   6.50609768325960     -0.24552982853621     -0.60762372623467
  H   3.97506747308939     -3.29875972161655      1.73872680681531
  H   0.62057552469155     -2.74034149225804     -2.04532343219498
