23
Coordinates from ORCA-job 17711optt
  Br  1.23865028226774     -0.09176791063537      1.01893627986861
  C   2.92767797270059     -0.00780955546453      0.06104473364551
  C   3.71345941259570     -1.18666689128195     -0.00922115248825
  O   3.07214908928263     -2.41213791429031     -0.00447353619496
  C   3.85465049884368     -3.49644486848291     -0.18914584137251
  N   5.09613285152752     -3.56076969084770     -0.36548197304049
  C   5.87724545817434     -2.32806904117535     -0.38099664188661
  C   5.05751671474849     -1.09352897404602     -0.16952952909928
  N   5.69988651353712      0.11903446310574     -0.19069316801426
  C   4.87262793578165      1.16356398154738     -0.05488982540773
  N   3.57382369734604      1.19175254664077      0.08347052895198
  C   5.60705000405712      2.48911886309552     -0.11752347116453
  O   6.12386170795873      2.74168784680310     -1.42827957237213
  C   7.28174717522868      2.12357847605657     -1.75310804604061
  N   7.79998160691284      2.18942035067734     -2.89654614548405
  C   4.78399424732863      3.65395252439879      0.23635075662209
  N   4.22735422347467      4.61003872349144      0.53110516624450
  H   3.24630649821425     -4.39604635464890     -0.17141496539681
  H   6.41209411859623     -2.26327286422983     -1.33545607640085
  H   6.65401470460965     -2.39995385922113      0.38753429057715
  H   6.44390451764450      2.44929446226801      0.58779809165425
  H   7.74776338221383      1.56723285519624     -0.94380260745804
  H   7.19910738695520      2.72779283104313     -3.52167729574296
