21
Coordinates from ORCA-job 17735optt
  Br  1.33004113486311     -0.11306476988694      0.34467215856514
  C   3.15715264905127      0.07747426424654     -0.08802560794665
  C   3.66665784294750      1.33782448240507     -0.26928003190965
  O   3.02986356105339      2.52623354418270     -0.04617891916881
  C   3.77351912749524      3.70973439763938      0.04575985046782
  N   3.12745327777661      4.79661251700334      0.19265864013901
  C   5.23455961022049      3.68924403264438      0.03537124086366
  C   5.86373957657313      2.51504892314890     -0.26962251494216
  N   7.16364762419430      2.01364617141840     -0.21893452482390
  C   7.09897887999968      0.58505267131390     -0.30787859340598
  C   7.55272793895728     -0.63116036273233      0.21854225275447
  N   6.54542644317249     -1.57587396517721      0.23442803237688
  C   5.43281856988652     -0.99065094943046     -0.27310380105101
  C   5.77515818254054      0.29621432225584     -0.66265928962027
  C   5.01873271752504      1.42163188553094     -0.59678051475287
  C   3.99040475376634     -1.21225889236674     -0.05448711838579
  O   3.45255225917052     -2.26762857104259      0.22885518547030
  H   2.12904444515937      4.59942007142527      0.22136020418454
  H   5.71286534782569      4.61437240931481      0.31808736374330
  H   7.93663934993852      2.53566647828075      0.15013848744992
  H   8.52301670788292     -0.88453866017394      0.61907749999205
