26
Coordinates from ORCA-job 17732optt
  Br  0.95058622524657      0.35959740452701     -0.00880797161590
  C   2.86496398926834      0.20274074858624     -0.18352780403544
  C   3.47275374337144     -1.05378053201622      0.05252378714223
  O   2.79067565639071     -2.20109664251343     -0.55880290754318
  C   2.06921615958703     -3.15592498990445      0.11724026956138
  N   0.82398523057319     -3.28074332836757     -0.02452506384788
  C   2.84813912615645     -4.17538758460110      0.96913460583757
  C   4.15220960167020     -3.48390306551683      1.24703089927842
  C   5.34466389271090     -3.58129851169704      2.19207067448504
  O   6.11659128404576     -2.44734423914196      1.72499887569312
  C   5.81951263614585     -2.18308151808006      0.30558317000464
  C   4.99449797926397     -3.39167551612936     -0.01032099237250
  O   5.05845693571056     -4.17991233944784     -0.91198562629528
  C   4.93527656168931     -0.99405291252214     -0.00305373780358
  C   5.53701393401895      0.20281734073861     -0.33030719125061
  N   4.92496169669734      1.36883140376885     -0.56338513438037
  C   3.57637847193798      1.34101585527865     -0.43309158099362
  H   0.47813687564991     -2.51928061009533     -0.60999497853669
  H   2.97519520481712     -5.08849660264385      0.38403866000674
  H   2.25199302044649     -4.40318175637612      1.85055286539861
  H   3.85210246721065     -2.46521969675223      1.49229968696505
  H   5.92664107481362     -4.50515095968727      2.10337371816535
  H   5.09630490399928     -3.40335352059347      3.23754467237833
  H   6.77236138299797     -2.11446320780001     -0.21584874772259
  H   6.62491762413249      0.22385906796603     -0.38574175673542
  H   3.05746432144784      2.28948571302094     -0.52599839178343
