22
Coordinates from ORCA-job 17730optt
  Br  1.17323850868830      0.07723108095234     -0.66120821336878
  C   2.88526204619177     -0.10006970429482      0.25652877983200
  C   3.66544576072342     -1.22061821248070      0.05837682434186
  O   3.25529473014750     -2.52526197150553      0.01297475703612
  C   4.39487907441091     -3.32710738245834     -0.02549194088195
  N   4.32767536882258     -4.60105851307267     -0.08002118744407
  C   5.55576442342105     -2.46644356982957      0.00335955073291
  C   6.90162832036498     -2.93444426525283     -0.02909221900697
  C   7.38378498915124     -4.22283944468429     -0.14588063535830
  N   8.74428614233065     -4.35950890743245     -0.15792138341620
  C   9.34158347498934     -3.21972935410058     -0.05339173728253
  S   8.26929773690689     -1.86899197301881      0.08597794511148
  C   5.04320965639943     -1.16428240961652      0.03413109184171
  N   5.64745931426595      0.08452456669359      0.04679883353988
  C   4.89585996316455      1.24615323381091      0.01303861524145
  N   5.34253832341834      2.42055264271172     -0.16992602515706
  O   3.57470589411547      1.11636507717166      0.26634071375742
  H   3.35347061723254     -4.89235635483058     -0.08230196144182
  H   6.73817761715055     -5.08288735194190     -0.22149016022725
  H   10.41268633180874     -3.08356209185916     -0.04165693266197
  H   6.61832970944804      0.17024114611416     -0.20288081905395
  H   6.34842199684734      2.40009375892447     -0.30626389613396
