25
Coordinates from ORCA-job 17743optt
  Br  1.07501167048694      0.19304795284801     -1.38333931616323
  C   3.17407648454813      0.30665345332986      0.01731137492906
  C   3.77069654753817     -0.86388626877870      0.42300088695278
  O   2.93557983469374     -1.94252435256644      0.71557968846031
  C   3.14326993632186     -3.20653776397626      0.33091388503034
  N   4.17252242558567     -3.87702705926902      0.04072586586367
  C   5.53388801083265     -3.38157116859366      0.12853548983610
  C   5.77845855198387     -2.20949925795465      1.08886877538324
  C   5.14417010878728     -0.93563351817731      0.61937541261543
  N   5.93512902573093      0.11187726607539      0.39624024793144
  C   5.36604167476080      1.24159194754213     -0.01627639458307
  C   3.99973491625083      1.39377194875519     -0.23388292474123
  C   3.42989290724640      2.70119108563588     -0.71828546916948
  C   2.41856287715070      3.23618737979419      0.26194425719651
  O   2.41488340965937      4.36628314969466      0.67754559632451
  C   6.05415369659994     -3.08117410523597     -1.21923087643014
  N   6.49895106427893     -2.88189919815994     -2.25622843067915
  H   2.18606677068943     -3.72162550075549      0.31142235890792
  H   6.13200677932080     -4.23102983944758      0.47337333597020
  H   6.84920365144059     -2.04092336591964      1.19772239978984
  H   5.37093847998303     -2.50868295667314      2.05884493023777
  H   6.03856155041063      2.07919934958082     -0.18361098596480
  H   2.88619839370818      2.50803860306446     -1.65006080054939
  H   4.20085392945282      3.45344479554255     -0.88505796365688
  H   1.66214730253800      2.49872742364468      0.58356865650824
