24
Coordinates from ORCA-job 17741optt
  Br  1.26265933617980      0.08646022183337      0.41575630949421
  C   3.15595213247112      0.01378630696072      0.30461599820414
  C   3.90081276716344      1.18607705843364      0.39062577689466
  O   3.20993472494362      2.37147228279730      0.59526525470859
  C   3.79590265010004      3.57329802560500      0.34468070041340
  N   3.19056421004372      4.64623132257484      0.62344000714944
  C   5.16347056968399      3.54189628101783     -0.26869089511615
  C   6.02345608951873      2.47215558333405      0.39844019599906
  C   5.28916931252155      1.16492516083761      0.32627694298400
  C   5.93270021993440     -0.06327649302702      0.16005126975449
  C   7.32948121735435     -0.40810231021520      0.03018937974582
  O   8.32994567864551      0.34435868573373      0.04245289367198
  C   7.35862040142208     -1.89032241608994     -0.13701184609106
  O   8.29749218954057     -2.65621173515763     -0.28905637522918
  N   6.01803173082076     -2.31249945241525     -0.09112933448091
  C   5.15643908315803     -1.24843932095441      0.07507651323724
  C   3.78204981435899     -1.22667594328783      0.14701234930600
  H   2.27796549167726      4.42720369979956      1.02364406526828
  H   5.58263862242388      4.54220164628487     -0.19215084780911
  H   5.05124362910418      3.29359570098668     -1.32871065792599
  H   6.21281217754561      2.74483081353874      1.44235102354726
  H   6.99572439874723      2.36769681480180     -0.07993820649322
  H   5.75499847772917     -3.27542991451854     -0.20282824514495
  H   3.18893507491190     -2.12923201887392      0.08163772791199
