25
Coordinates from ORCA-job 17747optt
  Br  1.30911128035547     -0.25224984376607     -0.06246188814620
  C   3.16367770084759      0.03116111366463      0.15277315672628
  C   3.75763952174812      1.27971659915489     -0.04960172350244
  O   3.19397318140973      2.46870204255798     -0.39735944387227
  C   4.21431342399163      3.42657339311315     -0.42677753415799
  N   3.98128892621287      4.65995941891033     -0.72391164691516
  C   5.43648140791377      2.78204705264732     -0.08698249257656
  C   6.75116934879161      3.48560810021347     -0.03956144032831
  C   7.60541622532109      3.07551895186380      1.12347720574861
  C   8.92202777735721      2.76218579684309      1.12947851780558
  O   9.34991880364033      2.44595245266122      2.38245771133536
  C   8.26919653620468      2.55017155660544      3.19184031320535
  C   7.17914656565814      2.92525475463952      2.48823804761742
  C   5.12074879060382      1.44202280412050      0.14142584891801
  N   5.89050874919776      0.33328748717613      0.43793610305443
  N   5.30250977081616     -0.87530620175707      0.83630641050541
  C   4.00616292072897     -0.97928345629770      0.62861460149900
  H   2.98955386881378      4.78538108732335     -0.90520889410651
  H   6.53480797434659      4.55635673116331      0.02303058767668
  H   7.33197984230396      3.34594019867973     -0.96048038920650
  H   9.66260094023891      2.71097385325606      0.34997896724244
  H   8.43425777337107      2.31710064881146      4.22950899672946
  H   6.17617758419044      3.06354473892304      2.85767226078921
  H   6.77441125329850      0.48989968701033      0.89520713792891
  H   3.58391983263769     -1.94351896751795      0.88839958602976
