23
Coordinates from ORCA-job 17742optt
  Br  0.98440079347024      0.10699611915553     -0.05688680989610
  C   2.87898994315265      0.02983154065992     -0.05442864292714
  C   3.59304927841798      1.19274713201595     -0.05350332303312
  O   2.94379566483627      2.37941627212633     -0.05372435081419
  C   3.60869350470244      3.61134876760975     -0.05283269676570
  N   2.88565286634409      4.66774782345333     -0.05289000578698
  C   5.02916070592191      3.56718684685331     -0.05193855035269
  C   5.70358082912514      2.36107153398764     -0.05174393058206
  C   5.02159954670419      1.13923737512442     -0.05240925659160
  N   5.67449768489505     -0.05333763859159     -0.05219127694857
  C   4.96444849077338     -1.16189232594235     -0.05273789335513
  C   3.55572358033107     -1.22693144147270     -0.05379247529573
  C   2.91208861713162     -2.50163099291725     -0.05393922608488
  C   3.64193018287428     -3.62428352685782     -0.05321741298490
  O   5.00560542087242     -3.60923514438924     -0.05243094506601
  C   5.73016771968504     -2.44015248077838     -0.05225796752997
  N   6.99373731913559     -2.50230268836518     -0.05180515701361
  H   1.90291006166160      4.40459612062315     -0.05361142362533
  H   5.53930026943772      4.51787871268334     -0.05135858299087
  H   6.78574203366840      2.32330044071112     -0.05103902778812
  H   1.83445851286419     -2.57424029755308     -0.05453266433283
  H   3.25159735690040     -4.62969221359398     -0.05313362966206
  H   7.27586961709433     -3.48165993454223     -0.05159475057241
