23
Coordinates from ORCA-job 17750optt
  Br  1.44308176825073     -1.95963841518866     -0.26641605246328
  C   2.80897448954423     -0.65781150290050     -0.39797892163298
  C   2.66046634103269      0.57661795570125      0.11425547641669
  O   1.52932636440867      0.84700848923355      0.85535805762088
  C   0.47199879054448      1.55979546490294      0.29734791559476
  N   -0.68953614685988      1.04982531748591      0.29131776577448
  C   0.77138935944547      2.91904587112040     -0.10620405255417
  C   2.03621579942826      3.50027122855370     -0.06450478342119
  C   3.30732960277585      2.94399081492472      0.08313332632898
  C   3.68326713506075      1.59697256007188      0.06987588917344
  C   5.08226148776975      1.23655651632092      0.01466511544192
  N   6.09248501096917      1.97889928925624      0.32519298975063
  C   5.48935254275538     -0.12632677642439     -0.50164833340016
  N   6.69102051318678     -0.49760927870642     -0.63374867404764
  S   4.27311350473395     -1.24821626618694     -1.12523259575454
  C   -0.33161688833369      3.73460080851202     -0.47805971696982
  C   -1.24469777948400      4.45021362740103     -0.80189967235328
  H   -0.63220527379230      0.09934936198214      0.65285269674680
  H   2.03159222817428      4.57087162532589     -0.23931111975066
  H   4.11442628338629      3.66555199566442      0.04689985683292
  H   5.78606387471878      2.87164333862323      0.70066481357638
  H   7.27727201838709      0.28060200214188     -0.31515870844960
  H   -2.06658102610274      5.06078597218477     -1.08340127246055
