27
Coordinates from ORCA-job 17759optt
  Br  1.50301327648058     -0.82813363471088      2.97621777567377
  C   2.82354106519261     -0.08085861754209      1.76764450881567
  C   3.47175685116853      1.03716071645304      2.18509151018936
  O   2.81285754486980      1.97628819001837      3.00068912659394
  C   1.83733319509165      2.64077366234453      2.30509787226896
  N   1.46388768095767      2.25955085904312      1.18144369962986
  C   0.53125761700604      2.90113579910698      0.29908440623171
  C   0.94491652956624      2.60400876992073     -1.14984800569619
  C   0.89214912972636      1.10392439546009     -1.52800626741581
  C   2.25623242080573      0.44726864434389     -1.85051829364552
  C   3.12487816201587      0.40814518133397     -0.62257965071772
  C   4.02743828140139      1.48680117682952     -0.47282499626362
  O   4.38142906754787      2.30176256652400     -1.32192942803635
  S   4.75875212608627      1.67320763029629      1.20594721227989
  C   2.80326196689646     -0.50958897025093      0.41970039585559
  C   2.18619962509291     -1.74202451303833      0.06923416642538
  C   1.65637030427524     -2.77569108658124     -0.25412418599988
  H   1.49064446434503      3.51039093273398      2.87144716596258
  H   0.46841902083183      3.98567578308531      0.46509629709933
  H   -0.46486134410885      2.47959271179442      0.47675610086962
  H   0.28765049858180      3.17709086259210     -1.81026180950129
  H   1.95774555051843      2.98542698200926     -1.29980450408702
  H   0.23735745219430      0.97430824657232     -2.39527075960401
  H   0.44006521696053      0.53914542810900     -0.70629180223556
  H   2.07021457855134     -0.56322181113851     -2.22152656497932
  H   2.76468810784839      1.01374144343479     -2.63290333427317
  H   1.18380161009583     -3.68888134874383     -0.51956063544022
