25
Coordinates from ORCA-job 17766optt
  Br  1.69370445022846      2.55288268295183     -2.88470535393616
  C   1.98782758292696      1.47210098892922     -1.34367036197100
  C   3.14819270640616      1.69298905881094     -0.57942125049607
  O   3.65765864434684      3.00039120273881     -0.53649733056926
  C   2.75590934656478      3.91790041061733     -0.12611686528077
  N   1.66514957961351      3.63324391107072      0.42527425918454
  C   0.66869103290511      4.65899685688698      0.60669620918143
  C   -0.49813782961445      4.43788039666398     -0.36893634619901
  C   -1.51030273406404      3.34870601563635      0.00021267948007
  C   -0.97263932001047      1.94657233484277      0.24418117045748
  O   -0.36027600861126      1.42224273686244     -0.93488684677319
  C   0.87068703053987      0.85930587231952     -0.70176188500392
  N   0.95877422062039     -0.06507931560888      0.18467561052397
  S   2.50030447323268     -0.65817617903563      0.54819474659653
  C   3.60308294168833      0.78740315536263      0.39884141182614
  O   4.57467126727840      0.87720136024954      1.14174553641432
  H   3.09201924979432      4.92959014525564     -0.37446919535039
  H   1.08010465762771      5.66752575676514      0.44442320169425
  H   0.30051376761733      4.61554474541943      1.63723220802381
  H   -0.07315109598955      4.22028067383623     -1.35045421677109
  H   -1.04890093221181      5.37968143766126     -0.45950407746444
  H   -2.03821238886337      3.64159434755160      0.91566008929452
  H   -2.26350587994016      3.30119821302926     -0.79197885212490
  H   -0.24336640537049      1.94840546033135      1.05371463376274
  H   -1.79479835671532      1.28561773085132      0.53355082550042
