26
Coordinates from ORCA-job 17762optt
  Br  1.34090024104694      0.84402979017426      0.90927643213406
  C   3.06806940340428      0.36639167622792      0.33817945269610
  C   3.26470404032474     -0.69909725314606     -0.44939793088942
  O   2.24060600685049     -1.48690061719894     -0.91285200216492
  C   2.01868034109975     -2.72525560941083     -0.36786146512265
  N   1.19856092780287     -3.50556265804579     -0.92238820317923
  C   2.68596304760302     -3.10114787251884      0.93204354162215
  C   4.20736510279632     -2.94770543038568      1.09237044112367
  C   5.07634159712161     -3.29969696624132     -0.12364922255708
  C   4.80249873654193     -2.35701497778107     -1.33082526634000
  N   4.50660765278922     -1.01274748956639     -0.90850068834536
  N   5.66254028236476     -0.39322106729962     -0.33589093695596
  N   5.46441678357389      0.70347511988060      0.39305278250487
  C   4.25115004944627      1.17929572928273      0.74997536357269
  O   4.09044343911410      2.20682196649931      1.41060427209796
  C   4.93125826662827     -4.69439500720382     -0.53267782714120
  C   4.77409008391804     -5.82718289514468     -0.89544562815390
  H   0.80970432945872     -3.05995146989439     -1.75362550512459
  H   2.39457064504946     -4.13801535013588      1.08748670899918
  H   2.20528154654423     -2.49834620129451      1.70939553507108
  H   4.50457525344823     -3.59412785667365      1.92012474264093
  H   4.46626009830780     -1.93052208359419      1.38436832814233
  H   6.11115136470588     -3.12707997808295      0.17971994654819
  H   3.98681493466471     -2.74155306339938     -1.93939689513802
  H   5.69779175088336     -2.31193361712616     -1.94975903877714
  H   4.62465407451104     -6.82955681792065     -1.21532693726373
