23
Coordinates from ORCA-job 17767optt
  Br  2.14932560939090     -2.27381927472979     -0.04990579893656
  C   2.79236155772385     -0.50484095130197     -0.03671907580254
  C   1.98951843386404      0.55010396422361      0.15333309769545
  O   0.66295578055930      0.31212106904383      0.42615565511577
  C   -0.09903682154665      1.28989626712026     -0.08682833231330
  N   -1.12926530358727      1.71288504029910      0.49638492524736
  C   -1.47174432045397      2.97955594872667      0.03592037057134
  C   -0.54419579706630      3.94373492284274     -0.16402352750007
  C   0.89488431447565      4.03518392851724      0.06273759607190
  C   1.27925512308733      5.46298283507286      0.12096605146858
  O   2.37255369618069      5.93317760309169      0.36589402739803
  C   2.02199520626307      3.20255484077958      0.23753378836398
  C   2.59121744687730      1.89226847208536      0.17947979234084
  N   3.94078668800190      1.91449436801058      0.17741183683992
  C   4.71613458554195      0.82577925095904      0.05477427556715
  N   5.98855030191543      0.75654150015128      0.09359400812528
  O   4.11175477659122     -0.43063268353504     -0.18787333258243
  H   0.29235875055857      1.72171160126844     -1.00957253549135
  H   -2.52671118552076      3.20875771260512     -0.04695586338438
  H   -0.97548816624419      4.89935068727233     -0.44591549729351
  H   0.44470212895519      6.16001377999278     -0.09086353690085
  H   2.87470800798411      3.85517380999747      0.40099667809682
  H   6.32937918644863      1.70300530750677      0.23547539730257
