22
Coordinates from ORCA-job 17764opt
  Br  6.18225263950059     -4.15668314283633     -3.07781708529934
  C   5.74071767324051     -2.33812439216541     -2.84552704773347
  C   4.90262069442845     -1.92590661979449     -1.79371093702265
  O   4.66375309220688     -2.74096369396517     -0.70784293597360
  C   5.65048437160264     -2.56074316624569      0.27785699009865
  N   5.36208215263524     -2.69636463478416      1.49207346780779
  C   6.99852295920580     -2.26749994187817     -0.27262903431365
  C   7.63049553169813     -1.09488847094694     -0.19280112121211
  C   8.82078484408138     -0.76919243076726     -1.00448910170843
  C   8.93995475866551     -1.05287548831321     -2.34944270192629
  N   8.01903466851538     -1.59454186249676     -3.16760990181045
  C   6.74584056087880     -1.34828296702356     -3.01306276717832
  O   6.35463562158761     -0.08187988809753     -2.86775734933766
  N   4.98967461260725      0.23269844307038     -2.44108308492985
  N   4.50886369943136     -0.68098382364739     -1.65964763944150
  C   9.90079038053151     -0.11036996818926     -0.35286981371285
  C   10.80103255150529      0.44893727789094      0.22355206186069
  H   4.35976054144942     -2.86353334210679      1.58661057340969
  H   7.39850162746487     -3.03392459839695     -0.92730050980066
  H   7.24369150700436     -0.32410489213385      0.46880380036377
  H   9.91957033436910     -0.88151127717145     -2.79124087963164
  H   11.59493517738933      0.94373887999921      0.72593501749202
