22
Coordinates from ORCA-job 17772optt
  Br  1.27702003173684     -2.53351183525835      0.35857119384484
  C   2.60908167605018     -1.19812479692694      0.30261474720936
  C   2.25574666407856      0.10097986106265      0.01123739466537
  O   0.95962516546610      0.47945459293747     -0.12455072882443
  C   0.94247944731935      1.82342569983965     -0.58617360584250
  N   -0.11575114528040      2.55371951107021      0.00607498489460
  C   0.11371277017692      3.81104399884694      0.18447246356222
  C   1.37718647340101      4.45246058595611      0.01599516613368
  C   2.47026005464244      3.62613787163838     -0.06518485194543
  N   2.29011037769194      2.31430498947220     -0.25716116499174
  C   3.12284903259131      1.19614098568560     -0.10909200335939
  C   4.51376263847378      1.13528424284190     -0.01264516825874
  S   5.26359719463377     -0.37374171876611      0.48826241050850
  C   3.94970613978864     -1.59914194777982      0.59950140592689
  O   4.31032488626453     -2.71456106893654      0.92193557656537
  C   5.42698365121006      2.16529803320683     -0.35717201188615
  O   6.65515953171394      2.09167277715515     -0.24141529753295
  H   0.83694259139192      1.79267352272329     -1.68499745579166
  H   -0.71695001304700      4.40023101169271      0.56913179913501
  H   1.49940670864698      5.51063014906696      0.17854144513936
  H   3.48169333771430      3.96818370130812      0.08996666269926
  H   4.98005278533479      3.06843983316356     -0.80491296185148
