25
Coordinates from ORCA-job 17770optt
  Br  1.42751899656813     -0.05293412047322     -1.36440813829490
  C   3.09801671624932     -0.09614387437317     -0.46905041254384
  C   3.90155398649649     -1.23390310350181     -0.58483864768341
  O   3.38463148011451     -2.53742639725741     -0.30183716713940
  C   4.37844984252351     -3.34239740643297      0.09144019757030
  N   4.29532493906155     -4.57795903960925      0.33629849361331
  C   5.66778009181958     -2.54592506748314      0.17003553723520
  C   6.63322442940289     -2.98914303120913     -0.93041810972361
  C   7.88945412008437     -2.14079386523885     -0.95817455029958
  C   8.85991035755596     -2.51862739759877     -2.03671993880926
  O   8.73631799782497     -3.45460325370541     -2.77912764616621
  N   5.18905544866494     -1.18652953377103      0.00435401463832
  C   5.61075757069981     -0.12932008441363      0.78810758447245
  N   6.66302095652720     -0.09256271931827      1.51032613244230
  O   4.86388619504099      0.97919684176912      0.72429885158166
  C   3.59053599144516      1.09709382867534      0.06520674308411
  O   3.12878406281920      2.21558621327484      0.07515888433781
  H   3.34050523840362     -4.90102313116341      0.18885460223337
  H   6.11485248564741     -2.68094998072218      1.15733109501724
  H   6.12152236558916     -2.91125603289399     -1.89304248349251
  H   6.87383154188325     -4.04226475619342     -0.78094319539034
  H   8.44338089923983     -2.20112985405314     -0.01209668396284
  H   7.64775637863668     -1.07796538086234     -1.07572818007899
  H   9.75196274637309     -1.86473479086303     -2.11392010628283
  H   7.16696516132829     -0.96928406258170      1.45889312364164
