21
Coordinates from ORCA-job 17773optt
  Br  1.08792968828238      0.11890963154888      0.00065575201473
  C   2.97514021675508      0.04332422647580     -0.00269762743339
  C   3.72771943883886      1.18874007362690     -0.00375624829689
  O   3.08834730254838      2.38502029054237     -0.00319779673417
  C   3.76789591056448      3.60947882370570     -0.00394965986288
  N   3.05457685353783      4.67620190097883     -0.00383127398561
  C   5.17772499554043      3.55412948839652     -0.00481123782604
  C   5.86548481182537      2.33071827708358     -0.00544457676639
  C   7.28641698388016      2.32346209023032     -0.00626259150337
  N   8.43827864893031      2.37207311959576     -0.00704026904934
  C   5.16152514143049      1.10098950910538     -0.00524730341791
  N   5.80202630461767     -0.08684992246104     -0.00623324795792
  C   5.02728816876309     -1.14114452363470     -0.00570696342305
  C   3.63236220819408     -1.19886029381716     -0.00388883850073
  C   3.28770612882892     -2.58522737351995     -0.00400472320747
  C   4.46478958730112     -3.25383350920964     -0.00585517457279
  O   5.53341647580492     -2.40606748317184     -0.00690475761910
  H   2.06949954184180      4.42203314880530     -0.00314309333119
  H   5.70611125356593      4.49385926098031     -0.00512406903746
  H   2.30185104008482     -3.01889179219470     -0.00291006356949
  H   4.70290929886384     -4.30306494306663     -0.00664623591951
