24
Coordinates from ORCA-job 17778optt
  Br  1.53953458123038     -2.14878706785095     -0.05533829738097
  C   3.41068189015352     -1.71444732435130     -0.02262606005676
  C   4.13610513239915     -2.07028003246016      1.06136131421949
  O   5.43478428820607     -1.58289924823379      1.11124450103854
  C   5.97642006216893     -0.93726605071658      0.02969040388308
  N   6.95741808775676     -0.15240688161568      0.14464528369466
  C   5.31769512056755     -1.39282695888546     -1.22449510689668
  C   6.11835745285669     -2.11414707417806     -2.09153285451494
  C   5.60147875411967     -3.38499677179361     -2.55246094062725
  N   5.88454857799887     -4.47789061362056     -1.59403855855916
  C   5.18325714360767     -4.33433582627465     -0.44119767254938
  C   5.49395542676280     -4.58941733522394      0.86983403260533
  C   6.67186872378042     -5.34664677590773      1.22931643002025
  O   6.98735863012240     -5.68462184575438      2.35222763785201
  C   4.54715881036439     -4.16262677227723      1.92787192062792
  N   3.85940108740722     -3.08206404071712      1.98766174865511
  N   3.96861899978940     -1.38671686674390     -1.20122046445495
  H   7.21525482447542     -0.06835364421519      1.12757639805937
  H   7.18517987701839     -2.03671128225976     -1.91080137306725
  H   4.57307385539765     -3.43732802088100     -2.88625476120291
  H   6.86821906624151     -4.68563969606848     -1.48754431406849
  H   4.21445205595019     -3.88306280185191     -0.62476258738362
  H   7.31303173283626     -5.65449352386853      0.37762875761941
  H   4.39414581878855     -4.87603354424996      2.73621456248721
