24
Coordinates from ORCA-job 17776optt
  Br  3.45060915037971     -1.47951265271381      1.98608975841800
  C   4.25282132746201     -0.96835973399721      0.36480770198749
  C   5.27598000482388     -0.09903242656856      0.32538252815001
  O   5.74671166928204      0.19101504766631     -0.95911113137853
  C   5.67376649463301     -0.80327794031768     -1.87352095468960
  N   6.85249030132672     -0.90971988151970     -2.66061005929375
  C   7.76717715980961     -1.55072038740302     -1.70562787778243
  C   8.07481088059220     -0.85108547606273     -0.55055267538877
  C   8.22824924797160     -1.33029664831052      0.73975795645888
  N   8.12430919266074     -0.53300579584328      1.83043680739989
  C   7.20499551861110      0.38764716293708      1.97956455159596
  C   5.93131638636905      0.64159752979770      1.39978924015943
  C   5.13645529870925      1.66831103143626      2.01757211072494
  O   5.47934336634696      2.45003614763896      2.89581264718974
  N   4.72790846239397     -1.64638322426371     -1.91936374608169
  C   3.76828665348243     -1.58676777752696     -0.88506057691690
  N   2.61290108775811     -2.10306028396309     -0.99333119666917
  H   7.18663774086706      0.02871638598016     -2.86349044540701
  H   7.74004188662678     -2.63176704868987     -1.74303608692490
  H   7.97711228233250      0.22795551761479     -0.60619979664087
  H   8.44728340382040     -2.38042236446686      0.92012715233808
  H   7.38254753278420      1.07005260967853      2.80949871577543
  H   4.10466869070578      1.73501170342690      1.61439178324184
  H   2.53157626025077     -2.50393149452969     -1.92732640626606
