22
Coordinates from ORCA-job 17782optt
  Br  0.93178006885253     -0.22088038059282      0.07384506952892
  C   2.81165720473797     -0.00957711084987     -0.05342461124681
  C   3.61717918483242     -1.16046098384549     -0.07684686500608
  O   2.93199970914298     -2.36743041332156     -0.08456934320912
  C   3.62310079765063     -3.49496826677296     -0.14137751674316
  N   4.87712478413759     -3.66719695139608     -0.14311324432070
  C   5.72729251740557     -2.49731530207270     -0.01196454004945
  C   6.51148497029213     -2.64512654428540      1.32874023564435
  C   5.59620437603170     -2.67027852527445      2.46498025835260
  N   4.88443025058689     -2.71815569742370      3.36155120561680
  C   6.76982156283715     -2.58696045457742     -1.07128787146788
  N   7.60189888114803     -2.67843428768800     -1.85490428800911
  C   5.00787901407430     -1.16620681658578     -0.09096572362948
  C   5.75534480522982     -0.00488269252025     -0.11824941200221
  S   5.05810262967974      1.57694944788332     -0.27519544760393
  C   3.28139698532682      1.32573519889170     -0.10399742286963
  N   2.53905754473306      2.37660496571924     -0.07333100433342
  H   2.96183056912528     -4.35334260291919     -0.19377141493542
  H   7.20503426116632     -1.81302013721418      1.44372504139173
  H   7.06811206782677     -3.58319394394950      1.31104871726899
  H   6.83606567663843     -0.02324486107671     -0.15469830081429
  H   3.10120213854379      3.22238635987182     -0.12419352156272
