23
Coordinates from ORCA-job 17784optt
  Br  3.20193548984662      6.02919370073390     -2.28480215705978
  C   4.33171372767922      5.14644843226493     -1.00580606983970
  C   4.57390421284758      3.81169043435005     -1.10665144286656
  O   3.92500046538881      3.01302395894507     -2.05774652442800
  C   4.75187127463126      2.69286513197736     -3.11424600087721
  N   4.58566057653079      1.64394149570032     -3.79049560237927
  C   5.80818253469770      3.70810466506529     -3.40097228401359
  C   7.09489766070302      3.52649159940133     -3.12816250734149
  C   8.08215944465718      4.63567396818148     -3.21036414818324
  N   8.37703378862775      5.27009956119489     -4.26601569799102
  C   8.70271299391105      5.08779152053157     -1.89274005350967
  N   9.94229708191634      4.90716599769740     -1.70440984278375
  N   7.80671376731952      5.79920094239816     -1.09810462578753
  C   6.87130482657053      5.16373952739775     -0.48034870041766
  S   5.36289824634337      6.10973283856401      0.01011536968145
  N   6.81652855922375      3.84521927452454     -0.23141732923888
  C   5.67293950788088      3.20650901810672     -0.43366418727246
  H   3.81706280006727      1.10354421262299     -3.39129459897502
  H   5.44627492733597      4.68675186283108     -3.70368867673781
  H   7.44066919850356      2.59059854049313     -2.70244945621224
  H   7.86392595012555      4.87178818770528     -5.05540573997665
  H   10.19139434989409      5.29039539035149     -0.79111415553236
  H   5.64891861529808      2.13602973896121     -0.25521556825754
