25
Coordinates from ORCA-job 17788optt
  Br  0.32212979845097      0.20734452764622      0.90628908423158
  C   2.06979112546433      0.58636065514863      0.28764808206072
  C   3.08491542064769      0.96904618728657      1.22732941399149
  O   2.74863444374056      1.57737119688677      2.43968682919314
  C   2.01294676865474      2.74791433151409      2.43662836100538
  N   1.60383010520089      3.24644965047295      3.52330035599833
  C   1.72928869148172      3.29195412043147      1.09665514925461
  C   0.52492969715173      3.67756542302480      0.67887573974910
  C   0.20008326279870      3.69600559450856     -0.79424812033322
  N   -0.72221985812069      4.40300013543832     -1.33203688271781
  N   1.01753438103122      2.79769510577953     -1.43201200957878
  C   0.61313253176410      1.68877894754430     -1.98176078983373
  N   1.38953763754634      0.60390371562101     -2.05872210581955
  C   2.33082362501189      0.59653324852975     -1.07394760755433
  N   3.65652086232733      0.58945168823156     -1.44226190357665
  C   4.70003877973477      0.72474295272186     -0.51753365410209
  C   4.40511741390743      0.98996425901614      0.79568668618080
  H   1.87568500322943      2.63720097506816      4.29504480501330
  H   2.49330878835817      3.14350980743665      0.34695140026732
  H   -0.29167832164789      3.79814753477285      1.38505017144369
  H   -1.15384316606711      4.99122009609203     -0.62008351492315
  H   -0.40030617514819      1.60131228763422     -2.39259303319322
  H   3.81642870183523      0.80455638796189     -2.41417871934180
  H   5.70235445994690      0.65600885155924     -0.90937146670824
  H   5.19501602269967      1.24596231967240      1.49160372929309
