26
Coordinates from ORCA-job 17785optt
  Br  4.17150158689080     -1.73303165368421     -3.02868707328962
  C   4.83526808943679     -1.00431996142181     -1.40255760322602
  C   6.03707491949715     -0.29383176676796     -1.41650695350673
  O   6.29567004358149      0.39293144785101     -0.21553279021556
  C   5.95123593548704     -0.31359083940038      0.90788121692875
  N   6.89085208918976     -0.17272535537038      1.95605492458709
  C   8.02042834127796     -1.11123369045062      1.77733868763706
  C   9.00442082790754     -0.72078049598921      0.65205041163644
  C   9.44743136241430     -1.89679309740599     -0.24499390033347
  N   8.35488365613859     -2.72187081115898     -0.76524097799937
  C   7.39563859146020     -2.21183240252937     -1.40680120905488
  O   7.28224366948532     -0.92298508520819     -1.80294800853078
  C   10.33360560488116     -1.40281952320004     -1.30606796016445
  C   11.07088012190375     -0.98482090096321     -2.15357394978530
  N   4.93923392348371     -1.05893453190078      0.98419513234860
  C   4.12573672872278     -1.21303982065178     -0.19228306009493
  N   2.89296841245576     -1.59093519797611     -0.07947955061628
  H   7.25435725412933      0.77538651465364      1.91559173415116
  H   7.58117524512892     -2.09078943620062      1.58611886906538
  H   8.54583844951976     -1.17472744887848      2.73175426919326
  H   9.90993751340452     -0.28360235684060      1.08008535247978
  H   8.54834943592711      0.03213434890810      0.01532122138536
  H   10.04860941608882     -2.57560817412754      0.36806617604000
  H   6.56102244354337     -2.84799710658970     -1.69564737518258
  H   11.70699985761815     -0.61282945640922     -2.91909266342086
  H   2.70863648042533     -1.74935319828748      0.90895507996796
