20
Coordinates from ORCA-job 17792optt
  Br  1.40546007600130     -0.22449195915385     -0.75047131055529
  C   3.16831594687594      0.05601297200172     -0.17520814578638
  C   3.62657012268919      1.29217825033012      0.21770744212515
  O   2.70542568757932      2.30215638038830      0.31749303613726
  C   2.74915342141804      3.36719652616744     -0.55901798102851
  N   1.68046977439216      3.59662350276959     -1.20713717723082
  C   3.95250689139203      4.16754748146518     -0.52312901960534
  C   5.06158652665105      3.93440720050024      0.22176686333516
  C   5.53454545424859      2.78168470034422      0.97456002897736
  O   6.54659088737501      2.90428746644190      1.69245748505237
  C   4.97191486040284      1.46126996379121      0.69064986502972
  N   5.80184052554779      0.40581058900313      0.86426305931686
  C   5.31538700340017     -0.74279766109907      0.48582227645523
  C   4.06271101010108     -1.01556854958465     -0.05070485959961
  N   4.00319108445730     -2.35381345503201     -0.30320336175567
  N   5.08813615106989     -2.89361560051221      0.02625033063435
  O   5.96818351060459     -1.91671348804462      0.54098037544835
  H   1.80352102218100      4.44456441444032     -1.75582817726042
  H   3.90111924787790      5.08753814306950     -1.09344121558592
  H   5.80637079573479      4.72472312271353      0.24019048589617
