26
Coordinates from ORCA-job 17796optt
  Br  0.67686106073903      0.06230230879642      1.81685376623141
  C   2.11844344244701      1.06877962128787      0.11718610034602
  C   3.24426484492783      1.68637300142856      0.60404542305760
  O   3.14574989136546      2.56823493316142      1.65923058936263
  C   1.99368056386402      3.31748092648000      1.76393069774836
  N   1.57809568479112      3.67935490953957      2.89590120847519
  C   1.33479624066588      3.84342330598745      0.50161214469744
  C   0.08437619609189      3.07414912296305     -0.00167799581234
  C   0.38618945284853      2.34714680042172     -1.30380021402683
  O   0.88223886415894      2.93112591357442     -2.23768312221132
  C   -0.03964914173408      0.89068860360840     -1.52698167166769
  N   -1.25278833272618      0.53899192006781     -1.67543969625706
  N   1.01048756192506      0.02345243468128     -1.71478142231593
  C   2.22318710753040      0.34154545520206     -1.05131793964111
  C   3.48810686451447      0.10143451454367     -1.57574229959732
  N   4.59758867833096      0.58575650533872     -1.01908059430866
  C   4.47461580073444      1.40274346830902      0.02944432240734
  H   2.12211898200745      3.21601994428332      3.62319655778324
  H   2.06329124115592      3.90188385433148     -0.30789260800944
  H   1.04081285599149      4.85910629268275      0.75972267065849
  H   -0.29019728383516      2.38681269062175      0.75337164363478
  H   -0.69913162953813      3.80141822722103     -0.23558380973160
  H   -1.87409528515256      1.33428701899125     -1.55165894590533
  H   0.74660279780417     -0.94159301715747     -1.85248752752549
  H   3.60646956106202     -0.47861159704139     -2.48668396911355
  H   5.38188398002996      1.85269284067578      0.42131669172117
