23
Coordinates from ORCA-job 17805optt
  Br  1.16546481950335      0.12820080238657     -0.74427034619886
  C   2.95554948346877     -0.00485402661746     -0.20517377555244
  C   3.60113808776093     -1.19759146835969     -0.27866807648975
  O   3.00799047606281     -2.28662155104845     -0.77047395708518
  C   3.46181629768578     -3.60862267503169     -0.52690408569440
  N   2.77127559940986     -4.54474253137068     -0.97502190542831
  C   4.72436171747411     -3.72754807830229      0.26914315912173
  C   5.62708383056287     -2.54950922675223     -0.04883486331317
  N   4.90684900277269     -1.28356232394991      0.11457879127463
  C   5.50355887826785     -0.15990952799720      0.59002403580528
  N   4.97174412746462      1.00025164508237      0.68533197417429
  C   3.64346898093394      1.19441816520167      0.26465613866313
  O   3.12871553281952      2.29075608062344      0.30572870599979
  C   5.50796853230284     -5.00676191264837     -0.04668603442836
  O   6.02249010859812     -5.12272039309477     -1.18718934791990
  C   5.65541664914567     -5.92084777356193      1.03464346200409
  O   5.18905687385814     -5.76613782242634      2.18832821077974
  H   1.94535267162191     -4.18809286307699     -1.45417256882433
  H   4.46057551742804     -3.74244965637403      1.33202706573153
  H   5.98686886053610     -2.64643169059339     -1.07509617784902
  H   6.48206819240592     -2.53978136819208      0.62459609269393
  H   6.53109939880759     -0.31083951682825      0.90930183819763
  H   6.24708636110843     -6.81660228706818      0.77813166433795
