22
Coordinates from ORCA-job 17809optt
  Br  1.02376685847133     -0.21032325774216     -0.30049107805711
  C   2.88835618605574     -0.12880551722745     -0.06699542850603
  C   3.68251082602430     -1.27772739816869     -0.06450030739385
  O   3.20193894812552     -2.57690446948841     -0.21602170552626
  C   4.25447460018798     -3.43384059790259     -0.16491302957317
  N   4.18596726854753     -4.67284340526541     -0.34870111444046
  C   5.52949341331912     -2.65757703257253      0.18258274991896
  C   6.64659198711916     -2.93288744022701     -0.72295635361942
  N   7.55615439602558     -3.08660382674298     -1.40394247014290
  C   5.03668993689446     -1.24114878124297      0.14101102761907
  C   5.67300191723294     -0.02980941221644      0.34725118994163
  C   7.13042659991985      0.22334647210004      0.28534306163080
  C   8.00952280458225     -0.62206506655499      1.16461056243625
  O   7.64441598055411     -1.43763716878498      1.96726429416160
  O   4.91630913502025      1.12806892438313      0.20748048794289
  C   3.51791279900936      1.13709467616824      0.06431079758554
  O   3.00353401340241      2.23441541257241      0.05016172454643
  H   3.22546823718825     -4.94518774274951     -0.55351022888331
  H   5.86052108405039     -2.94831099417994      1.18510702404624
  H   7.32886528534427      1.26575337304600      0.56047741376694
  H   7.55509656571351      0.11542518694459     -0.73103881287572
  H   9.09398115721159     -0.44143193414834      1.01547019542188
