23
Coordinates from ORCA-job 17807optt
  Br  0.84566263477854      1.72798972259062     -0.12508317777242
  C   2.53252533580229      0.90557216179765      0.03420052405659
  C   2.61755211936475     -0.44918927906340      0.28541740802014
  O   1.44549670391607     -1.09274448429967      0.56725637160987
  C   1.05294190424181     -2.24166091636303     -0.12070770735125
  N   -0.11921430372244     -2.27881970751243     -0.60861405118497
  C   1.94192084709625     -3.36894220766181     -0.09251475109037
  C   3.24576907303476     -3.38804378068276      0.32514091782850
  N   4.13284868924987     -2.41230722220364      0.56647396358474
  C   3.87237827829893     -1.11289327245117      0.40071372431031
  C   5.02340746392016     -0.25101039457214      0.32647509889683
  C   6.38415548618130     -0.49282851119822      0.42821397478085
  C   6.97254737562255      0.76610957801167      0.25538751839249
  N   6.07816679552179      1.72434007908298      0.05658694557403
  N   4.89324308206303      1.08859607473828      0.10464883115393
  C   3.67476268685542      1.77824692613466     -0.08049697974681
  N   3.62274525704914      3.03606172046226     -0.30883741624568
  H   -0.56971157760534     -1.37736120187823     -0.45705680844951
  H   1.48372044728776     -4.30250874825211     -0.38782577165992
  H   3.68623713920850     -4.37990842848795      0.41423356055997
  H   6.84325147617588     -1.44970652448624      0.59773373742644
  H   8.02093819154726      1.02317208231060      0.26522387679308
  H   4.57365489411165      3.40083633398407     -0.32856978948685
