21
Coordinates from ORCA-job 17808optt
  Br  1.18660099808142      0.04369804289271     -0.25034889992923
  C   3.07488441966248      0.10921593761028     -0.12890138045887
  C   3.83067558422566     -1.10171500849825     -0.14161233265815
  O   3.13042663385219     -2.29493085254841     -0.15854032410920
  C   3.83063402756316     -3.40905949042717      0.09362125991364
  N   5.07953959215906     -3.55308914483936      0.17858848396280
  C   5.92504319621004     -2.39429540988632     -0.10103677592166
  C   6.59426896303291     -2.62458129383104     -1.40252353091713
  N   7.09074663160106     -2.84367243010895     -2.41208549989342
  C   5.19200792956755     -1.07436407088166     -0.08651621876690
  C   5.91487037004835      0.14211362931074     -0.00046583770686
  C   7.31484098036908      0.13202707892997      0.04617738309180
  C   8.52614679725653      0.11036188997806      0.08721414469451
  C   5.13490258944379      1.37166260587038      0.02925303718466
  C   3.73881502031529      1.30645296710380     -0.04598481993103
  C   5.75078975942311      2.63769787575466      0.13762408922074
  N   6.23685703737065      3.68337710163454      0.23305180732342
  H   3.16490728062996     -4.25270564390747      0.24297225916547
  H   6.72868058085836     -2.35826034435272      0.64020822874988
  H   9.58789833780344      0.10119229964985      0.07665633544448
  H   3.17246327052584      2.22887426054637     -0.03335140845894
