23
Coordinates from ORCA-job 17803optt
  Br  1.11197064573112      0.12844385326802     -0.05710143801627
  C   3.00431665896932      0.01046519934810     -0.05656913379849
  C   3.72473588138706      1.17638480303337     -0.05613216973950
  O   3.08724041622810      2.38062431595336     -0.05601145435859
  C   3.74741700893769      3.59781112287996     -0.05545450781088
  N   3.05899170383681      4.66221065180852     -0.05537163749216
  C   5.17998214146245      3.53032441945006     -0.05514774180001
  C   5.80112208013269      2.32450631897501     -0.05536156036475
  N   5.11333555888256      1.15339970315233     -0.05583233510345
  C   5.80481586050567     -0.10804925980362     -0.05600517773671
  N   7.12417463961002     -0.02634498600027     -0.05580614676694
  C   7.76861374211572     -1.20931752003517     -0.05596291853306
  C   7.16875864627057     -2.44016664086550     -0.05627064445415
  C   5.73709259360328     -2.56568209056996     -0.05647079663434
  O   5.12689584500836     -3.64704326405114     -0.05668426552159
  C   5.03935997818367     -1.27687415242292     -0.05637179603707
  C   3.62589690058748     -1.23183880725063     -0.05666302029705
  H   2.06750123332930      4.42983470158175     -0.05569784904388
  H   5.73340796648541      4.45389926464548     -0.05478899659739
  H   6.87203184517692      2.19619493799100     -0.05516779264279
  H   8.85291951412545     -1.13881803965433     -0.05581352408829
  H   7.76165666835928     -3.34580755538339     -0.05635740424613
  H   3.06876247107104     -2.15615697605003     -0.05695768891653
