24
Coordinates from ORCA-job 17815optt
  Br  1.61643546530253     -2.20941082054608     -0.13188575754696
  C   2.62397351691780     -0.63590233219348     -0.48458447409474
  C   2.47571556534702      0.52641684770647      0.17304893992751
  O   1.54247874931298      0.47290361215691      1.19321609138961
  C   0.41410805429089      1.30696953254238      1.17404511438737
  N   -0.71977200922866      0.82347200726738      1.43955319225102
  C   0.80766806901356      2.64783693709649      0.82482779794203
  C   0.53212102685104      3.14944802056728     -0.40132733318299
  N   1.31006045062460      4.06889460109675     -1.01482866627176
  C   2.62236391825017      3.98284307700144     -0.81321741308410
  C   3.49962457367342      2.94313370821362     -0.41506267962619
  C   3.49777217447381      1.57609251184549     -0.07051833419683
  C   4.79744374505990      0.90511402216093     -0.28131260500285
  C   6.12154100659041      1.41420511900435      0.11183036769423
  O   6.36295041274412      2.41544281087955      0.73841538302725
  C   4.83827953797049     -0.28523551177361     -0.90009083741625
  O   3.69265772544737     -0.90429860544283     -1.30244157172893
  H   -0.63547588970905     -0.18951359486876      1.52975097433674
  H   1.70074175572563      3.00147153961655      1.32390275151832
  H   -0.35360587745937      2.80769330011557     -0.93622387809651
  H   3.16917048338728      4.86608051338987     -1.13794830545423
  H   4.51989371468783      3.29488088997340     -0.52106581225089
  H   6.95626561977186      0.76533055898849     -0.22660482040484
  H   5.73358821095432     -0.84886874479819     -1.12847812411599
