22
Coordinates from ORCA-job 17819optt
  Br  2.49258561377432     -0.34207564578451     -1.61960861060428
  C   3.81069954107468     -0.90211727099813     -0.37208920690961
  C   5.29726508961755     -0.93638118391521     -0.47767718679718
  O   5.90967919294987      0.28206799932996      0.13614887765687
  C   5.76867193490473     -0.19808246034437      1.41249068203396
  N   6.16276585968517      0.31356973578718      2.49006628570460
  C   5.05930412113047     -1.47327220375740      1.05753933582128
  C   5.69012001846271     -2.77622168281475      1.18632123954201
  N   5.18033092688678     -3.75109167487170      0.49248128431971
  C   6.01541839415129     -4.66039818495246     -0.11033987757529
  C   7.16613412058095     -4.43084237626401     -0.82642327807571
  N   7.77174974748746     -3.21777987801964     -1.13337070802240
  C   7.22522851914230     -1.96274687466051     -1.02676534355234
  N   5.96932422928308     -1.72182328120525     -1.33739903125852
  C   5.53516175973994     -6.01642571399584     -0.17099860066319
  N   5.17930006176735     -7.11082572285172     -0.20162569195154
  N   3.58533274203018     -1.30015798325855      0.81082926636952
  H   6.64260624153800      1.19398336167435      2.30000360993296
  H   6.71561853819530     -2.78854226965739      1.56302495705120
  H   7.66172388834821     -5.28822219628898     -1.26081118972766
  H   8.77329816456995     -3.25643619459265     -1.23095576980605
  H   7.91268129467958     -1.19417829855836     -0.67084104348835
