28
Coordinates from ORCA-job 17817optt
  Br  1.37672832316086      1.61749277968602      2.63186099755818
  C   3.47157190251635      0.36146024650335      2.01034713773401
  C   3.44817189697835     -0.97034243453583      1.82654248741860
  O   2.53811996894525     -1.81368037284243      2.49575202395788
  C   1.56921578437819     -1.95613669834667      1.53784739684601
  N   1.47330584023070     -3.01174153898449      0.86368689979296
  C   0.66893446934581     -2.96877137480720     -0.33000682622587
  C   1.59845958107785     -2.81044495743479     -1.56903418916781
  N   2.11275713633088     -1.46004126550073     -1.75207612854117
  C   3.56421502350004     -1.20864673041142     -1.79699416591210
  C   4.05923445176718     -0.65640371618037     -0.48848417584921
  C   4.09813379780539      0.67018861032039     -0.24551340578052
  N   4.06092966080208      1.14131957971643      1.04790108279248
  C   4.13081633695481     -1.56813180315081      0.67060613218977
  N   4.57752123016089     -2.76718693170802      0.66744124307731
  C   -0.06346242634497     -4.28180393328025     -0.47857258706876
  O   -1.04651672328426     -4.43625506692814     -1.15174917452295
  H   0.99267397379100     -1.03775015176832      1.37260401599777
  H   -0.07273827009429     -2.15711264693111     -0.35786680790294
  H   1.01476303681271     -3.11221981485824     -2.44540591455854
  H   2.42546840463193     -3.51653927475390     -1.44477653322740
  H   1.67637398115514     -0.80256323135690     -1.11818028624456
  H   3.77604487131605     -0.49353525081100     -2.59769754001151
  H   4.05835734455241     -2.14386363738621     -2.06894405236288
  H   4.07434950583120      1.41335403173615     -1.03441641555431
  H   3.99164820957592      2.13607210083633      1.18975472147422
  H   4.94344215131224     -2.99998782613305     -0.25658106518039
  H   0.39948053679004     -5.12272869068865      0.07195512927175
