23
Coordinates from ORCA-job 17814optt
  Br  6.01135842815998     -1.45447656421684     -2.99928948887431
  C   5.27168331627276      0.17541782741856     -3.59341083098326
  C   4.40534802843523      0.93084261220294     -2.80656065987760
  O   4.36124178441608      0.82348443274246     -1.44490539052497
  C   5.47043511520707      1.15563711045560     -0.66053287301392
  N   5.28178939873174      1.36983426124402      0.56675159647494
  C   6.81880164805000      1.04475583654522     -1.25978592590877
  C   7.21468999834807      1.53858324958456     -2.43835240424866
  N   8.32254668963307      1.06217471798383     -3.11368141010732
  C   8.20283037025830      0.77920209211898     -4.37412441741680
  C   7.04371485476831      0.81413047823999     -5.22554166775966
  C   5.73928659293956      0.77013556824384     -4.78445031708385
  O   4.81939850668331      1.50758154520634     -5.49515465783766
  C   3.63969470184475      1.93174563087865     -4.91951140711221
  N   2.70613789581994      2.37422436996040     -5.64228849033040
  C   3.57913584411164      1.92446974716163     -3.41075081947637
  O   2.83889894516131      2.70267585469632     -2.80541235986830
  H   4.28417680433724      1.30797769964801      0.77172065437902
  H   7.44819758976540      0.30813001531202     -0.77527315528086
  H   6.62841227231886      2.30603292113652     -2.94728688530848
  H   9.14047936620683      0.53462963964148     -4.87491487475886
  H   7.21576573206256      1.04626441466736     -6.27089069432886
  H   2.97797611646786      2.31454653912808     -6.62335352075277
