26
Coordinates from ORCA-job 17823optt
  Br  2.03914637937079      0.40090739255882      0.78308471924892
  C   3.77969875977141      1.12899427654179      0.45624118665540
  C   3.85844863944425      2.46812273247278      0.10041287378217
  O   2.73804640254331      3.18291702051658     -0.22412069563212
  C   1.92287113114404      3.75081692452444      0.73109129709846
  N   0.74858916905309      4.07823684403481      0.42556341112636
  C   2.51340382024764      3.98252335101981      2.08586817649895
  C   3.83438713456996      4.79220586608376      2.01872146104277
  N   3.84175826723285      5.72949486566819      0.93133861085189
  C   4.57685106444509      5.49375701374929     -0.13633118050258
  N   5.37406683334438      4.32942593395033     -0.35753431163694
  C   5.14209065787436      3.02289524189106     -0.10944084904502
  C   6.21605474888662      2.10888771486567     -0.05606765080368
  C   5.99207442425511      0.79741694556045      0.28167507364423
  N   4.78611706571807      0.29433692819277      0.57558046577828
  C   4.80689389761246      6.46153070685677     -1.15180869395058
  O   5.56546664557990      6.26759284895057     -2.14105559153063
  H   0.56479829801205      3.82758297722936     -0.54588077658068
  H   2.67332522418394      3.02074373001669      2.58439530270652
  H   1.75426610189845      4.52956582502328      2.64027899896333
  H   4.68838792529554      4.10490837598037      2.02037140033020
  H   3.89835782130996      5.35021832067150      2.95956120153204
  H   6.14985652809198      4.54906359796099     -0.97555595465887
  H   7.22030303949642      2.46668501610411     -0.24395094654777
  H   6.82121478120074      0.10107236512528      0.34248866591173
  H   4.30452523941753      7.42509718445048     -0.99192619428241
