27
Coordinates from ORCA-job 17820optt
  Br  1.97206424937192     -1.55936465803717      1.51027695565191
  C   2.84590139693249     -0.22485542531183      0.50421744509901
  C   2.38670800102012      1.03895105037683      0.42349965151131
  O   1.25406283460993      1.35967531205696      1.15543463553005
  C   0.20321179387443      1.80817365082404      0.43702930419314
  N   -0.70295735469200      2.46265784201771      1.00785026376935
  C   -1.49698008620408      3.27853662491596      0.12055971217017
  C   -0.68924003208053      4.57456478911662     -0.11765718517963
  N   0.61190874596360      4.25385058002380     -0.67039527980553
  C   1.75653057687336      4.14422458228727      0.24537343435804
  C   2.87793901213688      3.41860492997718     -0.50076604450401
  O   3.53269592252820      4.13446058765211     -1.26663070628514
  C   3.13917518547192      1.98624336661558     -0.39192850536084
  N   4.16006020786534      1.52626853726543     -1.14614564830102
  C   4.58224626873740      0.24712448022213     -1.08886885708654
  N   5.48838093544326     -0.30781841948308     -1.82198756211143
  N   4.00839951736443     -0.60028094017361     -0.10962382994707
  H   0.28307211874161      1.62792046238828     -0.63753659774979
  H   -2.46002634685862      3.50894098368962      0.58020377603291
  H   -1.67500315828207      2.80550036008735     -0.85419132473948
  H   -1.23884623729048      5.20750065951159     -0.81913011466156
  H   -0.61400939971599      5.11911270154744      0.83202597441359
  H   0.86883819240214      4.83444244919015     -1.45496747231355
  H   1.44457174276905      3.65679308588779      1.16334314781220
  H   2.15732840665660      5.13043619794967      0.50946874734323
  H   5.83861864667378      0.40629850224403     -2.45402682254864
  H   4.24934885968726     -1.57496229284197     -0.18242709729068
