27
Coordinates from ORCA-job 17821optt
  Br  2.46766926069086     -1.69027087179129      2.20801389611521
  C   2.96655977761320     -0.22302113131570      1.06465386164989
  C   3.74303492363270      0.82269146318373      1.60240067233677
  O   3.27829194523270      1.42429992474858      2.81720783546347
  C   2.26886796621095      2.28662162615574      2.55950879485392
  N   1.75429597450961      2.36136538255818      1.42173028980754
  C   0.84588070528636      3.32998850833486      0.90868784991117
  C   1.17898213955788      3.52263372532641     -0.58359031342391
  N   0.87824849266785      2.36751649994741     -1.42478675315217
  C   1.95276204200707      1.53073171744388     -2.01630436638763
  C   2.84402187289197      0.88690012619959     -1.01237463412806
  O   3.90841262382275      1.68270756708593     -0.63295301972212
  C   4.24173623623230      1.82918761911618      0.70447359014261
  O   4.87496651644883      2.82207697015933      0.99710221635045
  C   2.48520717879567     -0.18634025654665     -0.23064263046589
  C   -0.41124670169545      2.13296075463542     -1.74403932453657
  N   -0.82826012844591      1.21770593153885     -2.53996638253808
  H   2.01798413940071      2.88517167741688      3.44152311127790
  H   0.90487176599849      4.30468886976154      1.41538324701625
  H   -0.18611753474105      2.97056513076327      0.99520097898269
  H   2.24792990045316      3.72370362482025     -0.66534739300525
  H   0.63822329074796      4.39605331865539     -0.96499622156508
  H   1.43509810236498      0.77703810880455     -2.60590352190679
  H   2.54416897401120      2.16168905828724     -2.68665879270048
  H   1.74429769069226     -0.89134876364815     -0.58746730192776
  H   -1.09155323167278      2.83187477370143     -1.24356970167548
  H   -1.83933392271430      1.25580864465707     -2.59728598677258
