28
Coordinates from ORCA-job 17829optt
  Br  0.84206536763153     -0.65579491131421     -0.80695419943696
  C   3.07810551455929     -0.37113919408336      0.05081075682754
  C   3.47382142966928     -1.29771461317247      0.96787705781225
  O   2.57435675087097     -1.99419355154216      1.78105164032530
  C   2.34004557298934     -3.28438548668216      1.38838460978018
  N   1.81331179118540     -4.11369008201782      2.18488884932714
  C   2.73631060742581     -3.72938155296366     -0.01080462787003
  C   4.02838115276662     -4.58867971450231     -0.03083072887624
  N   4.79536167449078     -4.51803966212336     -1.26731422090536
  C   5.95344590275469     -3.85803188963368     -1.56893358959827
  O   6.52463398707939     -4.07392766413247     -2.62216595549613
  C   6.51555348338033     -2.82907337260793     -0.57848548108652
  C   5.49856304739397     -1.77206274991615     -0.27068515692938
  C   4.75326343434492     -1.86819302052514      0.86260608308386
  C   5.07894712582422     -0.83617428834164     -1.30025172020996
  N   5.59734585959288     -0.61902121754140     -2.45843641809311
  N   3.96700292595363     -0.06808585647281     -0.92641854049558
  H   1.63499824069858     -3.65790430132188      3.07986491941301
  H   2.84149683521254     -2.87914123597126     -0.67821853499033
  H   1.90417000887368     -4.32906259079769     -0.37688902169574
  H   3.75417217759705     -5.63274482775849      0.12742069978501
  H   4.68541358846023     -4.33434745548206      0.79326336861909
  H   4.48480231944173     -5.09502230529915     -2.03480486641523
  H   7.42421448301201     -2.44976238012114     -1.04729723441925
  H   6.79882713049310     -3.34009484525857      0.34521719686207
  H   5.06217330972244     -2.54972834730466      1.65080901201212
  H   6.39287756270526     -1.22893008941609     -2.61980186576636
  H   3.68233871587021      0.59732720630381     -1.63290203156310
