27
Coordinates from ORCA-job 17830optt
  Br  1.81317581823350     -0.67986668706294     -1.87502710912775
  C   3.50027159453550     -0.82733055643917     -0.93839977599150
  C   3.53333653424594     -1.09593903695562      0.40944848703315
  O   4.76140364719576     -0.85256898469260      1.02449670714248
  C   5.92479628347412     -1.06013170109184      0.29674577642901
  N   7.04337036283398     -1.14632492099374      0.90632771212941
  C   5.74332215284894     -1.14839448105047     -1.12870369092244
  C   6.49208970283343     -2.22319632327879     -1.86601743595074
  N   5.58548695219553     -3.40550398138653     -1.81503123235901
  C   5.58666406801641     -4.16850911658537     -0.66663832146507
  O   6.60514898367135     -4.58187037225514     -0.15268533330217
  C   4.24014144002540     -4.38814954223243      0.00972969644281
  C   4.30867734516091     -3.73387843684587      1.42727592965085
  N   3.13369773191104     -2.99982414573466      1.85915236808662
  C   2.58544203907745     -1.92210731437795      1.16663561298604
  N   1.31307972990678     -1.76992603485839      1.23594755343482
  N   4.56528096055266     -0.78433653734704     -1.70788363251945
  H   6.88637333459591     -1.10939589796781      1.91168838370383
  H   7.42463313658404     -2.48483723273890     -1.37375444399784
  H   6.66549444274520     -1.96604622855553     -2.91007852503437
  H   4.65585675919461     -3.10137926063712     -2.07681088561625
  H   4.05097872794398     -5.45869031666011      0.10002565001339
  H   3.42463084817682     -3.93656755956398     -0.55711642641217
  H   5.17794372192567     -3.08400686853934      1.47674645855668
  H   4.48432124060880     -4.51323821027258      2.16722805818204
  H   2.39105781797605     -3.55555452111465      2.25855215579786
  H   1.04432462353008     -0.90142573076136      0.78614626310976
