25
Coordinates from ORCA-job 17836optt
  Br  0.96165761563347      0.30038240926185      0.45188067562862
  C   2.82561177338908      0.06535932086499      0.31972163685049
  C   3.69827552723086      1.13169026241160      0.06801099112388
  O   3.37437287731450      2.44443504383064     -0.12644820340989
  C   4.54505578169128      3.14215150503412     -0.41161484022483
  N   4.52390742113409      4.40420993095894     -0.68284551105511
  C   5.63712278222154      2.22694028150226     -0.33788382322471
  C   7.03160683083015      2.56049652692888     -0.48762356544032
  N   8.05304656707683      1.83130047961522     -0.16007993374284
  N   7.26248542508541      3.80315150775849     -1.04179947260084
  C   8.56892436159169      4.37711898754669     -0.97435816168142
  C   9.34328657746998      4.27092625591719     -2.23151563773925
  N   9.96263204524852      4.23504064868362     -3.19606308849689
  C   5.05844725603605      0.96618083006797     -0.05312501267660
  N   5.63895621819926     -0.29288897108492      0.08973619021343
  C   4.76173093631548     -1.38536040374247      0.23971028625546
  C   3.42012408001219     -1.21589380747388      0.38440247121543
  H   3.57347389458013      4.75708131861085     -0.64753262043803
  H   7.73825297260054      1.00462404128281      0.33456444934510
  H   6.44987352341198      4.40967727291111     -1.12522863046238
  H   9.14560752176819      3.86410733025381     -0.20047297467046
  H   8.50641401602424      5.43981399890456     -0.73190785358562
  H   6.47825474892040     -0.44887433263333     -0.44988962702479
  H   5.22979366266475     -2.35632643471387      0.29490668809332
  H   2.80108558354923     -2.08634400269721      0.55245556774825
