26
Coordinates from ORCA-job 17831optt
  Br  2.41703441366474     -2.26448534894797      1.23086531170930
  C   2.54653744254902     -0.64963511317852     -0.19622457649711
  C   2.08900204498346      0.57230843576533      0.24411147928203
  O   0.89247986740449      0.64552330640450      0.96900469783673
  C   0.03526294298670      1.54583884266688      0.46496086992635
  N   -0.57234666148272      2.34267301020379      1.22625647272182
  C   -1.19911471852360      3.48962112955976      0.61328688137288
  C   -0.19961989496071      4.65883853581184      0.68697936470263
  N   0.79766516041453      4.70219756407895     -0.36963498238675
  C   1.82815916664030      3.82867363342275     -0.68392004247051
  O   2.29348059892373      3.83518699280333     -1.80418245236735
  N   2.29557372652629      3.01471395534573      0.33103531122423
  C   2.85310021704435      1.73518462336644      0.00376707671901
  C   4.08325546127801      1.63968835783932     -0.58096706990735
  C   4.58887556887864      0.36097073853281     -0.99260327515887
  N   5.71709706875094      0.06647015711172     -1.51455508702916
  O   3.72314063548169     -0.70986581131720     -0.84555186406469
  H   -0.00491691816927      1.57108250347558     -0.63246998016732
  H   -2.09551964032272      3.75678137445740      1.17731014854084
  H   -1.48485219175893      3.32943086323538     -0.43556776644070
  H   0.28581655739576      4.62879858280496      1.66520730269023
  H   -0.73671499985004      5.60734802977983      0.63242374460221
  H   0.52592217955711      5.19628503246209     -1.20479192844852
  H   1.74359586995061      3.01278014281979      1.17615446451308
  H   4.66372987370526      2.52445342550462     -0.78849844621927
  H   6.26235622893227      0.91813703599079     -1.60839565468374
