20
Coordinates from ORCA-job 17846opt
  Br  0.99381052527161     -0.08102678756467      0.41631854501975
  C   2.86044709091122     -0.06242363706895      0.13966185851510
  C   3.57477830823115     -1.26379375088818      0.08659171405782
  O   2.94175563965817     -2.42095813520622      0.23144369728478
  C   3.67289534586654     -3.59410934710001     -0.00246626527458
  N   4.90972397186373     -3.64022610931432     -0.44084928476563
  C   5.71787005326967     -2.47237285155984     -0.11022020988412
  C   6.17108601903117     -2.85066085659482      1.30294209778385
  O   5.51108750471604     -2.58665982820657      2.27799232076507
  C   6.89084763865779     -2.41567073890550     -0.99788376407058
  N   7.83999432838750     -2.35290453533362     -1.63784544999017
  C   4.95138254220613     -1.17760223777205     -0.12992028844156
  C   5.51957245181338      0.07185618199489     -0.29636102196354
  N   4.84279201451620      1.21736798381586     -0.24941222084296
  C   3.53150370499600      1.13238758338810     -0.02444026058966
  C   2.87724435557288     -4.74175477570086      0.16203987211444
  N   2.22888977840016     -5.69558490587232      0.27124699017911
  H   7.05287810453991     -3.51265336127715      1.33297951027434
  H   6.58706337137498      0.14575780720685     -0.48219163967443
  H   2.97537725071550      2.06203230195951      0.02237379950296
