24
Coordinates from ORCA-job 17848optt
  Br  1.38373457669505     -0.31003674203235      0.96178655515851
  C   3.17433814759181     -0.20899774751550      0.40865185244128
  C   3.85104751875415     -1.33607027113991      0.04973867721563
  O   3.22468620965431     -2.50276376721412      0.08207096111115
  C   3.76984530727992     -3.72525280254227     -0.43564729918712
  N   2.94524760946784     -4.70187424776444     -0.54062003807510
  C   5.13697676457877     -3.68857337626754     -0.71188949271800
  C   5.87227521647555     -2.49719833970444     -0.71882037533547
  O   7.19200191911601     -2.51504575588851     -0.19544286076242
  C   7.33502293312603     -2.86081126447336      1.10372773466307
  N   8.43681492731549     -2.88413774885637      1.71166541976400
  N   5.17021455394968     -1.29448893530989     -0.36186642374190
  C   5.76490295974964     -0.06331803770998     -0.66300154800582
  N   6.84314892787590      0.12351491518560     -1.30614622613944
  N   5.09781173273179      1.03378060992061     -0.15277752063773
  C   3.80522180687990      1.08792915923121      0.35329752360102
  N   3.23016570490976      2.17284659156968      0.71657464909874
  H   2.02895539330001     -4.41966758877518     -0.20527684980363
  H   5.62746107259168     -4.61681083871993     -0.96254996838550
  H   6.40322996982794     -3.13664677975396      1.59659670426241
  H   9.18445069870475     -2.59591722538998      1.07857640183551
  H   7.25088077394792     -0.75965342431971     -1.59197749800983
  H   5.56664460858220      1.90372048456329     -0.35157748746590
  H   3.84792066689381      2.97047313290707      0.58290710911655
