25
Coordinates from ORCA-job 17841optt
  Br  1.69194378705257     -0.89932123077896     -1.33990876311279
  C   3.09559432981346     -0.21370892292413     -0.22534729775162
  C   3.74093546091358     -0.97868282044517      0.68171460143312
  O   3.33889507521508     -2.33048068665941      0.88464295875217
  C   3.59307266765032     -3.29562163501720     -0.06349897655112
  N   4.57761765546256     -3.47612415820213     -0.83899925938011
  C   5.54642242623631     -2.40438542928336     -0.69881505024272
  C   6.99415762087631     -2.30927609851527     -1.16099847544772
  O   7.63783735535856     -1.48578959184679     -0.18802190012613
  C   7.24867122469255     -0.08725798838025      0.00606417912120
  C   5.79281237930428      0.22807943055844      0.24662655410510
  C   4.99420617951565     -0.50524818274717      1.17386909313151
  C   5.12708262142603      1.01044501135931     -0.73316939505235
  O   5.60150419933068      1.70453627876867     -1.63872123172866
  N   3.69030321198531      0.97379950690907     -0.60484939903783
  C   2.53313252424253     -4.29363433054575     -0.04259478317799
  N   1.71163664432655     -5.09228890608749     -0.01219328793609
  H   5.66891649096601     -2.28070182106555      0.36672128983661
  H   5.07027467230716     -1.50936949199565     -1.08732970873077
  H   7.08378450856244     -1.87421016754809     -2.16261825503211
  H   7.52813356107179     -3.26061581672236     -1.13649083724732
  H   7.56564292850893      0.49542486283004     -0.86306537368467
  H   7.87764995895549      0.18422402782096      0.85754958178257
  H   5.46432283901129     -1.05585061844548      1.98036603513832
  H   3.21744967721445      1.54405877896373     -1.28893229906060
