25
Coordinates from ORCA-job 17843optt
  Br  3.63046241459008     -1.05003216558146      2.62243709976611
  C   4.65130861407541     -0.77111416397508      1.04979207790500
  C   6.03912386425851     -0.57777097702520      1.17516331772340
  O   6.62164464627232     -0.00766824933999      0.02837074762199
  C   6.36892610500321     -0.63160600402900     -1.14412189103981
  N   6.97766270622335     -0.34185520342436     -2.21327010917590
  C   5.26991672131674     -1.61799577428763     -1.07345229760310
  C   5.45353501130794     -2.88139860830873     -1.46032860294787
  O   6.71517031422274     -3.42261680553609     -1.67639248397122
  C   7.46701713112406     -3.35236188371186     -0.53477785447203
  C   8.79206118927767     -3.46360965657113     -0.40848170472725
  C   9.36734669951791     -3.37192310345178      0.95761533596069
  N   8.98765008352550     -2.56354347988966      1.89723173179723
  C   8.22222825171949     -1.48616760451512      1.52468481623085
  C   6.97109384711440     -1.18711635961529      2.02929405489182
  C   4.10973245052973     -1.21736307854631     -0.19895686034515
  N   2.86277344206878     -1.46483597888669     -0.45128082512500
  H   7.67266824272007      0.37799873976313     -2.01180653499316
  H   4.65722101155788     -3.61667600084385     -1.45709076357546
  H   6.86837984410429     -3.16663166107651      0.34833816782612
  H   9.42325366748200     -3.69251655313018     -1.25993875654995
  H   10.10654539315294     -4.12451465275558      1.22752693592429
  H   8.48717395588445     -1.04469788018843      0.57001695964989
  H   6.59449831474956     -1.69431037757301      2.90919309211220
  H   2.77960607820044     -1.84167251750005     -1.39276565288368
