22
Coordinates from ORCA-job 17856optt
  Br  1.10085127185552      0.11075791268911     -0.05792357743326
  C   2.98021265966964     -0.00787706741020     -0.07493411437419
  C   3.73652134949055      1.14226356137619     -0.08787501218154
  O   3.22714239444311      2.39495209308411     -0.09108027850680
  C   4.26761385182073      3.32158523670975     -0.00545750637872
  N   4.05874424443537      4.55416987773697      0.06698966174350
  C   5.59597051686479      2.61512144362689     -0.03320002165552
  C   6.48253900319006      2.92708627966994      1.11471712405953
  O   7.65006481137396      2.43254573005694      1.14659481552202
  N   5.07004072273521      1.18129637623140     -0.08729184175010
  C   5.75346460062206      0.00016141108233     -0.05332588806305
  C   5.04756186758663     -1.18812503310975     -0.06710739205897
  N   5.98126570687821     -2.16504087211460     -0.03340869735149
  N   7.22605523000872     -1.68143689253302      0.01260835272990
  C   7.11834728848247     -0.36189644352019      0.00287145087179
  C   3.60057974731848     -1.31331858718419     -0.07926258103781
  O   3.02468042102644     -2.40152760182319     -0.08078076280480
  H   3.05687896747711      4.74155403606926      0.09144496518208
  H   6.12947361354749      2.74381605477537     -0.98786333841733
  H   6.00253283492374      3.40396244572564      1.97890074491443
  H   5.80564390006089     -3.15409682049855     -0.01086613080758
  H   7.96881499618872      0.29504685935976      0.08225002779791
