19
Coordinates from ORCA-job 17855opt
  Br  2.14014233698409     -1.25417187256615      1.88989761767556
  C   2.83262873913847      0.12420439919313      0.82088392890493
  C   2.15135930534631      1.18338805940413      0.38989885279128
  O   2.86614297770945      2.06400234915566     -0.38036485176412
  C   4.03540669415684      2.44637184006156      0.36309104121124
  N   4.03911989962920      3.70178371202406      0.71133213741318
  C   4.35961213329262      4.36262789412929      1.81534346216226
  C   3.30161626136621      4.98011684756343      2.53554362940526
  O   3.38158271828947      5.74443472413937      3.50501112659947
  C   1.88742447508478      4.56858969101478      2.06717325699076
  O   0.95244245809898      5.27924049459678      1.87182774149272
  O   1.78236456360165      3.18634168357773      1.96214116015535
  C   0.71291867349120      2.60582425354843      1.37266847694586
  N   0.82858411890391      1.55373055220456      0.68024769758513
  C   4.75675375133543      1.35327482994376      0.70332678099566
  Br  6.28432883594400      1.45059522873005      1.78653988147042
  O   4.18537414787656      0.09361139964405      0.59792461182361
  H   5.37244342999792      4.46092432053182      2.21051328574919
  H   -0.24924552024731      3.07210959310339      1.55400016239216
