24
Coordinates from ORCA-job 17858optt
  Br  2.41805071944610     -2.06242207073883      1.17260446686523
  C   2.97179923914067     -0.46750618183407      0.33462338209868
  C   2.30371459221215      0.68971522636978      0.46344932604322
  O   1.17829880427349      0.80318271837646      1.25139965757099
  C   0.26503080578999      1.64967257018607      0.69386795534117
  N   -0.41167446446563      2.46692663473749      1.36595585424693
  C   -1.06337525378505      3.44922648355903      0.52443492924331
  C   -0.35076754290527      4.81495129808841      0.43812693356364
  O   -0.96564831658129      5.81941980557179      0.77943438963310
  N   0.89266684039017      4.97769271154938     -0.12547301695398
  C   1.93439271612554      4.11191088757990     -0.52921546582537
  N   2.01390987341678      2.93379728893728     -0.00806112961100
  C   2.79078789930447      1.87602256582802     -0.22997223064246
  C   3.93526797683874      1.75938667467490     -1.03633359637320
  C   4.65311053073548      0.54364056061780     -1.15707093118560
  O   5.66937451775323      0.32239465070327     -1.82180438425244
  N   4.12214475903255     -0.53672936040523     -0.41510397053391
  H   0.14890606847679      1.48949810575360     -0.38305916833625
  H   -2.04461047107847      3.70206590922740      0.91994739974038
  H   -1.18473565802985      3.09899299164054     -0.51405324430503
  H   1.09861167291825      5.96457549925913     -0.20644998286324
  H   2.61570528728776      4.55428552169497     -1.25391851790996
  H   4.32091211833771      2.61257765487876     -1.57525623488482
  H   4.61712728536564     -1.40827814625593     -0.50607242066939
