22
Coordinates from ORCA-job 17859optt
  Br  2.49406611358591     -0.95615161609658      3.14708671155943
  C   3.24470127869582     -0.30355082644918      1.53346585600399
  C   2.47129674778208      0.34672180880871      0.59810125354591
  O   1.11007992616475      0.43007723764312      0.87896508320571
  C   0.49665802981100      1.58070881302259      0.63272898305751
  N   1.08064075947307      2.69980683840043      0.60571566257680
  C   0.45456873198210      3.62272573540834     -0.23954039717410
  C   0.30234202357092      3.30305974423366     -1.54100465419980
  S   0.81000724630290      1.74399070408949     -2.23186279634814
  C   2.47411050482979      1.48043296737066     -1.69675145292385
  C   3.03773301253668      0.80628518421328     -0.61962930084233
  C   4.52253036330770      0.55358092820138     -0.78648230894779
  O   5.09563431977449      0.90901035491072     -1.81330667441978
  N   5.22479072264782     -0.08891562889987      0.20850159325956
  C   4.60957088825294     -0.49090857089885      1.29077751517557
  C   0.09299704377808      4.91266849818049      0.26266936210351
  C   -0.23479631059624      5.98832446347497      0.68328595311282
  H   -0.55928363872040      1.42510473335670      0.40727129236588
  H   -0.12958242408330      4.01787120046469     -2.22956933250932
  H   3.19457645999217      1.77290943944911     -2.44654024457968
  H   5.20216664778994     -0.99967058998922      2.04707412906622
  H   -0.51980844687825      6.94091858110529      1.05804376691185
