26
Coordinates from ORCA-job 17869optt
  Br  0.93147574850810      0.11115616757371     -0.47667845847017
  C   2.82679970004979      0.26616256490886     -0.38397881919546
  C   3.37782406020674      1.55939502102209     -0.42413559811198
  O   2.94035077422716      2.57303688886779      0.52239572616275
  C   3.91727736509451      3.45071327539229      0.73638705850838
  N   3.84537897663197      4.52955630497231      1.39412588396481
  C   5.17848482710845      2.97892799326884      0.04198292836446
  N   4.79241657548520      1.67813535784557     -0.44874919042589
  C   5.59906886565058      0.57278269022281     -0.47924085252618
  N   6.97234207016259      0.86864561891102     -0.44729122165470
  C   7.91050991238755     -0.18681654370648     -0.72573342556102
  C   7.90068231685565     -0.66744220916929     -2.19204529571363
  C   8.44650900626051      0.36491209772420     -3.06868557647732
  N   8.89768265171630      1.20485745796618     -3.70600173672571
  C   5.06526511199526     -0.66842413165585     -0.53267670658134
  C   3.60326380226443     -0.90732943394057     -0.52458292057930
  O   3.17735131449842     -2.06822724186521     -0.65798573643774
  H   2.89915864154196      4.65251718221273      1.75076388954715
  H   6.00819626797381      2.92385135880326      0.74574175183281
  H   5.43263855943087      3.68589992113234     -0.75756995372654
  H   7.19692128047929      1.73422426866292     -0.92148886880804
  H   7.68113457591130     -1.03398733366545     -0.08072461196108
  H   8.91066941936301      0.16385852519901     -0.46946831919595
  H   6.87610737171295     -0.89152846367244     -2.49484889308090
  H   8.49894014268559     -1.57250317695318     -2.30793577434072
  H   5.67855066179782     -1.55237416005751     -0.61957527880669
