23
Coordinates from ORCA-job 17867optt
  Br  0.90170852067868     -0.23547573991801      0.02936960224769
  C   2.77389081721432     -0.09341196264301     -0.05956376141654
  C   3.52514803063590     -1.20149230371808     -0.04358223667741
  O   3.07735332518153     -2.49188188151946      0.05480492327591
  C   4.14991999467832     -3.34752376774947      0.03230786671521
  N   4.05594163496392     -4.59616291418310      0.08046729886618
  C   5.41728388971555     -2.53393043929513     -0.05559267492651
  N   4.87863625754251     -1.20634501489423     -0.14594257663876
  C   5.60817374718071     -0.02118120352800     -0.15363215161243
  C   4.87461720279314      1.19649355056389     -0.12392186078415
  C   5.67658870359963      2.38155173204081      0.12407665382742
  N   5.33189430299685      3.54412112745414      0.51826488847920
  O   7.03510769203001      2.23831415613326     -0.04721937213247
  C   7.59435466326912      1.00252510463613     -0.29373214680194
  N   6.91644963234537     -0.13669842122473     -0.21817893420849
  C   3.42643650467860      1.22677221667003     -0.21897253119836
  N   2.65549879269250      2.24172033396773     -0.43684125559033
  H   3.07887342471559     -4.87900307846953      0.13872312772066
  H   6.01156286397469     -2.80693669837219     -0.92941055980507
  H   6.04207739980464     -2.66742841454267      0.83201073678764
  H   4.33635586957364      3.55746284199769      0.70901599968386
  H   8.67037103988518      1.02677214954824     -0.23717492207223
  H   3.21175568984949      3.06773862704566     -0.63227611373906
