24
Coordinates from ORCA-job 17860optt
  Br  4.15127686137851     -0.13905794371909      0.36349091060112
  C   5.49940899594052      0.99066529963897     -0.35058812519556
  C   5.43120188863672      1.36287112501757     -1.64439834127684
  O   4.42403855021157      0.90063807971024     -2.50716754240779
  C   5.02023787814144      0.30792050301575     -3.57968045548502
  N   6.08678526964531     -0.33054383324739     -3.40219043242023
  C   7.16676358767189     -0.13444831406716     -4.25480390395273
  C   8.31148972393312      0.10142833570557     -3.61061779316706
  S   9.63806052045158      1.03936752458511     -4.24756838497779
  C   9.71191354881056      2.33683504007087     -3.05442313131578
  C   8.94634204388570      2.72860121720836     -2.03120538995560
  C   7.66754499374998      2.22524060974031     -1.45386092223568
  N   7.72360028129937      1.89465793205215     -0.18823711042976
  C   6.63625127179205      1.38235371496469      0.48444626036037
  N   6.71163090912249      1.22930670126379      1.77398395269450
  C   6.46152089158577      2.19945506023714     -2.24353548591524
  N   6.38040335860941      2.80177895318750     -3.41106553692597
  H   4.55531316809883      0.58948233652635     -4.52880821542269
  H   7.01869910149790      0.12225412145407     -5.30265879058468
  H   8.34966132010553     -0.10007573784910     -2.54614612554880
  H   10.63290303778031      2.88603544871099     -3.22010598602896
  H   9.37741667152103      3.53672568444396     -1.44623024164226
  H   5.84336629124246      0.82647288936936      2.11725610576158
  H   5.43616983488779      2.70703525197993     -3.78188531452911
