21
Coordinates from ORCA-job 17862optt
  Br  1.79106125270979     -2.51762342821399     -0.66171461695625
  C   3.44224883773591     -1.70559567530869     -0.25499088323811
  C   4.00111781066359     -1.74901919123952      0.95324609055517
  O   5.06967251572015     -0.94070958787641      1.25642175758646
  C   5.90216495167944     -0.50047588773655      0.22218387755106
  N   6.86698954507410      0.26264504088954      0.48436643432163
  C   5.55387814673610     -1.13969042362976     -1.05987178493535
  N   4.12550980073376     -1.03397897945602     -1.28176914325953
  C   6.16765880813973     -2.41238249264322     -1.13991786672895
  C   5.48371553445027     -3.53696364094122     -1.59771536595322
  O   4.55892078231337     -3.69130712819541     -2.37535729906704
  S   5.94555896341928     -5.05552299313012     -0.46148892479490
  C   4.24073858764191     -5.14256387820740      0.04313354350001
  N   3.65917881372889     -4.59668713101156      1.01438178594818
  C   4.07804633684255     -3.83278585706061      2.07472671145953
  O   4.54703070106030     -4.24819263654746      3.08872759166428
  O   3.63867783841651     -2.51139327650544      2.01694573997409
  H   6.89922483072615      0.44156481242226      1.48845728337110
  H   3.85979677543494     -1.39955228162501     -2.18749876557069
  H   7.06783553198519     -2.56625968439773     -0.56354231100728
  H   3.60997363478796     -5.73350567958562     -0.61872385442020
