25
Coordinates from ORCA-job 17872optt
  Br  1.34810716097436     -1.02035986774847      0.66558626637142
  C   3.14855488360154     -0.55013342765544      0.18373937258110
  C   3.61349851311757      0.75735089656104      0.45671248686676
  O   2.71826583498157      1.83790187836722      0.22205705726330
  C   3.11014283641987      3.02537260550822      0.69971715993518
  N   2.39669948288373      4.07147887930714      0.64863011825431
  C   4.47622925807504      3.02597695391843      1.32885850878146
  N   5.43530644028349      2.31008262310866      0.47624852255221
  C   4.99924598017000      0.98244554674951      0.15873559222547
  C   5.77295414114124     -0.05209032652730     -0.30078577617127
  C   7.22657168593843      0.14037437754656     -0.60809096202788
  O   7.44274214796784      1.24581305315893     -1.47106327987092
  C   7.63651149064580      2.44293548523712     -0.79507890687677
  C   6.56928108966666      2.99070889505788      0.14909740865922
  O   6.81057708577528      4.10668364240959      0.59378967831259
  N   5.30374441707008     -1.30909212649019     -0.52858047163093
  C   4.00298246561497     -1.52485493299958     -0.24316037245618
  H   1.50081229548250      3.84323443154672      0.21730897624945
  H   4.40838444799581      2.50775749744060      2.29037440897452
  H   4.81347914263964      4.04364389784114      1.47127796429624
  H   7.57641984146014     -0.75385579165836     -1.12014895753311
  H   7.81970078035287      0.27722775397170      0.30807901221115
  H   7.76889185952247      3.22079594761789     -1.54712229219439
  H   8.55390128972101      2.41548140440850     -0.19079724083706
  H   3.64299542849799     -2.54287929667754     -0.35338427393589
