23
Coordinates from ORCA-job 17877optt
  Br  0.87203619424905      0.11993436717136      0.62720649683277
  C   3.02402276330663      0.01002136307670     -0.51190139285661
  C   3.78070882297269      1.15946421809285     -0.56317356178709
  O   3.12323966605752      2.35396742156598     -0.86969049659884
  C   3.66855138587725      3.54415142274514     -0.56410754761611
  N   3.09288669865785      4.63747100047892     -0.82261915618355
  C   5.00363209764248      3.50017176209865      0.12609870316471
  N   5.80114187926944      2.44124662013531     -0.46813640550472
  C   5.17678298031482      1.19396518091713     -0.39865706249868
  C   5.90108724976058      0.01268300231412     -0.18825011496635
  C   7.30742409442501      0.05714984576142      0.00160612261587
  C   8.49499222794575      0.15593954383722      0.17116051805280
  C   5.15512664933789     -1.17714138288600     -0.15974139737748
  C   3.77546678254025     -1.12907421010980     -0.30273996480158
  O   3.32823939926762     -2.42946909264953     -0.20988665836253
  C   4.44337834317368     -3.14789499342983     -0.02119713002199
  N   5.55360517249662     -2.49894744019743      0.01798546336087
  H   2.18570943446762      4.44843637085177     -1.24927619036120
  H   4.82270008922786      3.33084809378748      1.19783462966155
  H   5.48279201061070      4.46596689218125     -0.00572654860381
  H   6.75835852577133      2.41272667694362     -0.14293950688102
  H   9.54625899642327      0.21209980652283      0.31327268650563
  H   4.31385853620394     -4.21371646920916      0.08387851422737
