23
Coordinates from ORCA-job 17871optt
  Br  1.12248941075292     -0.15163017804030      0.14979251526883
  C   2.99442914775941      0.01395067156093      0.17100287894190
  C   3.56727298222469      1.21334578612394      0.25214341110750
  O   2.95691792521052      2.43801659647877      0.29792585996985
  C   3.91111330405196      3.41185319348716      0.15721567092977
  N   3.67509454013761      4.64406844271449      0.19378175604020
  C   5.23691337608181      2.73937087429721     -0.07704052140149
  N   4.93972612221627      1.38433080527454      0.31609222532522
  N   5.78129523125318      0.38232588747939     -0.17921334017947
  C   5.22587972623598     -0.82668084027201     -0.18975477314955
  C   3.87370152316519     -1.16314286496952      0.05968530836601
  N   3.28590255011310     -2.36194507579802      0.10716212296574
  C   3.89428427543100     -3.53728981602211      0.04952335777452
  C   3.38141038577721     -4.81842395613825      0.06740041747573
  N   4.40349225840004     -5.74271018809138      0.01011320642736
  C   5.47933460259383     -5.03963187248262     -0.04018367449482
  O   5.27554110578044     -3.70181493188912     -0.02427245694571
  H   2.68049978763054      4.81052882885281      0.33982423706222
  H   6.03208944891296      3.19003353630436      0.51443517049545
  H   5.50910371813954      2.79896734367646     -1.14135982567761
  H   5.91052310951012     -1.60952777701507     -0.47838461206285
  H   2.34481965431981     -5.09870295024027      0.12266236194265
  H   6.50016581430176     -5.38029151529136     -0.09155129618146
