21
Coordinates from ORCA-job 17879optt
  Br  1.16992532779711      0.07328839430443      0.55604715507445
  C   3.02111621187089     -0.09542299357921      0.27257940594326
  C   3.62559991323897     -1.27883946584929      0.12948669842462
  O   2.88961635571014     -2.43191674462277      0.18726440732324
  C   3.49929448027609     -3.64153031108890     -0.05348870554292
  N   2.81025493781351     -4.71502913928446     -0.01221968270978
  C   4.90343021946679     -3.59859015294059     -0.34562340455729
  N   5.63045957827581     -2.49653646178986     -0.36154440163691
  C   5.05554054937967     -1.32379584257541     -0.09430523102718
  C   5.76805135918791     -0.09522733415588     -0.06789056705152
  C   7.20406381437528     -0.01921187740858     -0.09385054902020
  O   7.85145567534418      1.01610468035449     -0.28849084090719
  C   8.00495408818796     -1.20990418623133      0.21534281551797
  C   8.78913610188475     -2.06369342563524      0.52236800123657
  C   5.03258308643840      1.16955883490312     -0.01347216569065
  N   5.43472205220971      2.35935236369754     -0.12052949420233
  O   3.64739483167752      1.08362776174987      0.22313070204868
  H   1.84066233188679     -4.49162174557642      0.20550309766145
  H   5.37962535139533     -4.54407882773777     -0.56769282461637
  H   9.45185303187089     -2.85258820499086      0.78199334807971
  H   6.43926070171220      2.33905467845715     -0.28260776434762
