22
Coordinates from ORCA-job 17874optt
  Br  1.10875021854731     -0.08807957918912      0.30373040026048
  C   2.97546991219048     -0.01470313797508      0.09377828084589
  C   3.65386013694305      1.19646598126097     -0.11089491575467
  O   2.86023861791669      2.30834204320303     -0.38001172682004
  C   2.90306142338408      3.46538728127188      0.31656056693106
  N   1.96887663600268      4.30929649397080      0.27083400347145
  C   4.16200550685602      3.72753052165755      1.09629272134626
  N   5.31309016498495      3.61200102924747      0.23483460757198
  N   6.11517837212258      4.65353837005457     -0.05858124681085
  C   7.02674106600781      4.08298901754230     -0.82021332548516
  N   6.85860939053165      2.76269555594098     -1.04496865332318
  C   5.75120453631132      2.48673097790648     -0.36839372121167
  C   5.04250788569025      1.22438058108852     -0.20332240965622
  N   5.80675731761699      0.11948554155156     -0.11021135371396
  N   5.08707236710301     -1.04200197268161     -0.02228972633505
  C   3.72059727786219     -1.23114228113410      0.14911235834888
  O   3.28828681103249     -2.37015884560672      0.31049277552389
  H   1.20261942719810      3.93852981757879     -0.29181462433596
  H   4.25050477016152      2.99332186295265      1.90214628630812
  H   4.13103516147989      4.73468308465705      1.49662340338228
  H   7.84391746196939      4.65242151139274     -1.23450957589571
  H   5.64261553808747     -1.87771385469075      0.05480587535217
