23
Coordinates from ORCA-job 17876optt
  Br  1.47375250088152     -0.11166759252361      0.12651185193480
  C   3.34414063279116     -0.24327359319466      0.31629625502243
  C   3.97544295517674     -0.11975847208414      1.49051215018930
  O   3.15538919848677      0.02242286579137      2.57061608989004
  C   3.52082485533183      0.43021096599009      3.82022848550677
  N   4.65780234844549      0.61285816476243      4.35197201211785
  C   5.88793355206129      0.46220986511061      3.76819138006167
  N   6.23479271151125      0.13325388335447      2.55284631506160
  C   5.44977723032644     -0.14940839109799      1.51258991235123
  C   6.05880316489440     -0.47028139496114      0.27128704850848
  N   7.45881485780748     -0.30750597540113      0.19273406135908
  C   8.24879461051640     -1.08031768421374     -0.44638402544001
  C   7.99782969884986     -2.14064178006626     -1.38918404481728
  C   6.88426930369726     -2.13303959383450     -2.20320574015427
  C   5.70287104581779     -1.40945689386610     -2.04695728595705
  C   5.30395180440741     -0.77259662146302     -0.85932356225702
  O   3.94195524288453     -0.49012158626771     -0.85465194116804
  H   2.61296157002156      0.57602758994948      4.39343808581969
  H   6.70579079951953      0.65976197017560      4.45229685394592
  H   9.30793205840488     -0.82946634805192     -0.32246514038621
  H   8.85110633911893     -2.73787795205075     -1.68454884003336
  H   6.92818200922524     -2.75758333189038     -3.09271595883776
  H   4.93988150982213     -1.49374809416697     -2.80908396271789
