20
Coordinates from ORCA-job 17889optt
  Br  0.80081904186954     -0.41015418981900      0.51870285441203
  C   2.66955560614406     -0.22955354414557      0.36239180835692
  C   3.52796423190132     -1.24305134920002      0.29147778998034
  O   3.28732892550205     -2.57506922087622      0.36328197644376
  C   4.50565876298763     -3.24834619765207      0.13590027743814
  N   4.56734336767264     -4.51803709310788      0.14518330535798
  C   5.52640191567490     -2.25163254977414     -0.06811655606579
  N   6.81893798665986     -2.59918842945335     -0.36598853203351
  C   7.79548885059563     -1.86972859732689     -0.08584752264388
  O   9.07417090235312     -2.21281884375916     -0.49502720966083
  N   10.06929655361274     -1.45880228445074      0.07196537108328
  C   9.59723312919733     -0.53196315112144      0.80238599062077
  S   7.87110023835337     -0.40017127403517      0.93203188562428
  C   4.90936579328100     -0.98153576295188     -0.01433367936090
  C   5.14310125916891      0.30702278396667     -0.52754135731228
  N   4.29853707752699      1.31018553946880     -0.49281028096500
  O   3.11168563789064      1.05725821674745      0.28906247275645
  H   3.63844805084326     -4.90103282283141      0.30409661574249
  H   10.27412923827781      0.14545781513730      1.30229322151142
  H   6.04143343048709      0.54316095518473     -1.08710843128567
