25
Coordinates from ORCA-job 17880optt
  Br  0.83958351276616      0.24377053047614      0.31221210638180
  C   2.72285001348191      0.12964046092445      0.26413656926177
  C   3.49072864551277      1.29440881111427      0.32482495941840
  O   2.87084263630558      2.51898343445529      0.54625301493152
  C   3.54875214272461      3.65942383288036      0.29212570604450
  N   3.04335177741211      4.79550026171479      0.51133865630589
  C   4.92155122149434      3.50345146094378     -0.30914332661628
  N   5.60429266578704      2.40256713133697      0.34508311697837
  C   4.85653490849797      1.21166746911796      0.24350686178284
  N   5.52356881881230      0.04377756928096      0.09196713282749
  C   4.80221788607186     -1.05883851498645      0.03484940616419
  C   3.37113912861941     -1.12642005451090      0.10322488825593
  C   2.77720484359939     -2.39250430223891     -0.00361564708313
  C   3.52043384658158     -3.55652129907575     -0.16522993947148
  C   4.94065362901929     -3.51844087778403     -0.23090576571990
  N   5.80214918085124     -4.48263755492360     -0.38221162015928
  N   5.48181884575019     -2.23551605579517     -0.11646484141395
  H   2.09866065588186      4.68272000058546      0.87954478448269
  H   5.45204025892483      4.44068350448153     -0.16476207259350
  H   4.78422826752398      3.32720589694638     -1.38826509201216
  H   6.54175006029812      2.24559993139758     -0.00064358422395
  H   1.69679659313484     -2.45445637566585      0.03638652138598
  H   3.03487263499582     -4.51861105272712     -0.25256320280447
  H   5.29909105972658     -5.36188950434379     -0.45441438645222
  H   6.48788676622612     -2.17656470360435     -0.16723424567105
