23
Coordinates from ORCA-job 17895optt
  Br  1.48318291441647     -0.19757254280432     -0.32056815093032
  C   3.32845653314724      0.12420276251287     -0.15278932526655
  C   3.87531645662745      1.32480373461445     -0.05993937000491
  O   3.28800719396149      2.54948157391704     -0.06111735978885
  C   4.33437064664365      3.48491247097408      0.04891744643262
  N   4.12265138313695      4.74272767836808      0.05848079867463
  C   5.57561815839008      2.78824086451303      0.14642575922242
  N   6.79523363697137      3.46819837290184      0.30908244342704
  C   7.85131321537015      2.96990571247056     -0.56707047132755
  C   9.06735970639444      3.77228470831451     -0.44069397937166
  C   10.05400959052965      4.44749602929566     -0.35436001346203
  C   5.32628852887335      1.43066220367322      0.07693809380082
  N   6.09489094108726      0.34515471221554      0.10459965533864
  C   5.49227898054011     -0.84270970544702     -0.00457988391932
  O   4.07751178364099     -1.00244585136260     -0.12992998168828
  C   6.15385656220111     -2.06326365068009     -0.00144726737581
  C   6.72537937249438     -3.13624692154623      0.00041903009861
  H   3.12916539461694      4.93702682860606     -0.02791290932887
  H   6.63763718824977      4.46191334328181      0.17853329609628
  H   7.54493665021086      2.96200152997554     -1.62336484240500
  H   8.05783611644034      1.93236994014268     -0.29603214118864
  H   10.92956062398934      5.04339794965559     -0.26885161252765
  H   7.23313842206652     -4.06854174359233      0.00326078549436
