25
Coordinates from ORCA-job 17899optt
  Br  1.23453229936487      0.41915834200115     -0.05580086509326
  C   3.07994964866574      0.20998815532246     -0.28058144409194
  C   3.76979310308451     -0.91232429417029     -0.01983247587063
  O   3.26418012666726     -2.09147635604472      0.41419582191987
  C   4.34444926752610     -3.00040919074136      0.54854164474114
  N   4.15466397432410     -4.20351472201359      0.97504348713131
  C   5.52331785800336     -2.31547417070729      0.18909780330128
  N   6.79716306944468     -2.90843199550762      0.27204247446415
  C   7.18181295687231     -3.49860538385063      1.54328869541454
  C   7.71138934362846     -2.51681690001162      2.50056494959509
  C   8.15378414479387     -1.70851605577945      3.26831665235749
  C   7.72342143355411     -2.80392600056246     -0.72578531060239
  N   7.59890894464700     -2.30539325365562     -1.89248078371396
  C   5.18962040407460     -0.98582781257248     -0.15831028859507
  C   5.83290139015478      0.21330759332290     -0.54268201640268
  C   5.09549369274341      1.32189556118469     -0.79316750359592
  O   3.70733031494603      1.36250447143862     -0.71892408904692
  H   3.16799373739155     -4.34838788903562      1.16682898311553
  H   7.93751952871725     -4.26740957704385      1.36737918695722
  H   6.30185971445990     -3.99643829456825      1.95844125410802
  H   8.53021957247287     -0.97903121828335      3.94312698047178
  H   8.69282798447087     -3.21366659019047     -0.43541857062268
  H   6.64947050317485     -1.95687774846160     -2.02951057595157
  H   6.90867349281912      0.27576473373104     -0.63871515562897
  H   5.49172349399832      2.27990859619943     -1.08765885436141
