22
Coordinates from ORCA-job 17890optt
  Br  0.52906025120700     -0.39913157445283     -0.76048983505214
  C   2.83026898479082      0.04597862899852      0.11305220301567
  C   3.57313650246202      1.16989891768701      0.06459672026882
  O   2.90214080260192      2.36757058925578      0.08380344792055
  C   3.52323836219178      3.56535598769398      0.06440730424678
  N   2.84533505297402      4.63205078349246      0.08939343303663
  C   5.03375672743286      3.62475275216426      0.01128156939711
  N   5.62607722332589      4.75842279361990      0.00138212028343
  C   5.69981762092614      2.35861164444889     -0.02735308423674
  Br  7.58695183074441      2.36613951495166     -0.12372211843481
  C   5.02164021895859      1.16157305151728      0.00213660920163
  N   5.66831933275330     -0.04381869801411     -0.02218626049384
  C   4.91695264134037     -1.09795839486407      0.01079897813358
  N   5.32018547773821     -2.39933017611998     -0.00260510006932
  C   4.20726094687116     -3.23016907849202      0.04389709197852
  C   3.11288652960927     -2.44734027485982      0.09152238313955
  N   3.55047085780672     -1.12863355487725      0.07363573346351
  H   1.85253157597689      4.40707501500881      0.11979570108240
  H   4.91320251270871      5.48656514883857      0.03311728109998
  H   6.28614749696091     -2.66602754595234     -0.05458857582365
  H   4.29358586796557     -4.30069796112123      0.02971308806359
  H   2.06103318265330     -2.66888756892350      0.10941130977876
