29
Coordinates from ORCA-job 17901optt
  Br  2.53722560110670     -0.43694723023185     -2.18847077055113
  C   2.72023781339745      0.55091167098352     -0.59852228904447
  C   1.75406036028816      1.51016984039586     -0.23711390589933
  O   0.63020755733480      1.76384453328327     -1.01196213009005
  C   -0.51430029574624      1.08890675889932     -0.69395618515995
  N   -0.60185011145371     -0.03505295507029     -0.13442754458176
  C   -1.72792478955233      1.92952779636967     -0.99853575376178
  N   -1.79320503591042      3.08792091125701     -0.10689109276958
  C   -1.04589951825458      4.26853970571130     -0.55363957418746
  C   -0.35528239303641      4.97778562748409      0.60974944617938
  C   0.99983969347913      4.38139109224142      0.95607553961284
  O   0.84570610985944      3.02496194960121      1.34944205291560
  C   1.88080098402803      2.20220069326969      0.96250793975278
  N   2.90847872068837      2.11049637847389      1.77295327294732
  N   3.93752154867022      1.32042454515411      1.27601403678717
  C   3.87786183758006      0.39611814705446      0.21379425646805
  N   4.82462478168152     -0.46303888324538      0.00080867036983
  H   0.32633820787941     -0.41785550835070      0.05854650948349
  H   -2.60644240469157      1.30012076194318     -0.86494247824168
  H   -1.70056428493246      2.27795826940561     -2.03301358302087
  H   -1.43050278148030      2.80243397844983      0.79572908963492
  H   -0.28302548847013      3.99913695662416     -1.29152196784061
  H   -1.74511224247809      4.95708664413653     -1.04041387956234
  H   -1.00954978028932      4.96142536499543      1.48745688851914
  H   -0.19481447711456      6.02911366826395      0.35536297248087
  H   1.48136520570965      4.94049465494497      1.76538025094310
  H   1.65247534703141      4.42519808849441      0.07786022375042
  H   4.59431839305695      1.07809126804981      1.99892409280618
  H   5.54841144161877     -0.36936472858858      0.71080591205996
