24
Coordinates from ORCA-job 17900optt
  Br  1.44560992261041     -2.15025498360645      0.19972827123791
  C   3.33851815084994     -1.79882260642532      0.18589395909825
  C   4.07848631100777     -2.04448072291547      1.32079373647206
  O   5.36571087547068     -1.45776367904338      1.31605835041909
  C   6.02597693994254     -1.44224112235675      0.10596263065352
  N   7.30968647509622     -1.45152112557628      0.06097192601183
  C   5.18036683416639     -1.42721541187903     -1.05522562132149
  N   5.74686907405045     -1.98072626434189     -2.26879029802855
  C   5.38859045341078     -3.35310509871027     -2.04522509004166
  C   6.10168375350397     -4.24588367937301     -1.35646359519627
  C   5.29892371054375     -5.17217836364424     -0.51232346340854
  N   4.58343631644163     -6.12008882927553     -0.94684228514488
  N   5.35764786870835     -4.67431085960823      0.82013916029220
  C   4.34585923305734     -4.80491091199667      1.77015055717639
  N   3.82707708900261     -5.88537849148211      2.18089079202256
  S   3.77651586469565     -3.25355016049169      2.51930492621620
  N   3.83486337507457     -1.39276986700568     -0.96322438566506
  H   7.68392763793862     -1.49290421843951      1.00611741506836
  H   6.75459990082475     -1.86956855600151     -2.18936659935552
  H   4.33944833243882     -3.54807562808989     -2.23670529688930
  H   7.10320332465883     -3.99589594803819     -1.02133356479946
  H   3.98192200652453     -6.50279649783685     -0.21958431440196
  H   5.81172729199287     -3.77200978918632      0.85900617318742
  H   4.33534925798842     -6.68754718467567      1.81006661639690
