23
Coordinates from ORCA-job 17905optt
  Br  1.54208450883033      0.56540986827646      0.71419902173071
  C   3.22781424252964      0.26298099490682     -0.11454111462933
  C   3.95752459786067     -0.87563689063646      0.19419688089630
  O   3.68633064854259     -1.94663270245916      1.00497031338401
  C   4.75105479177875     -2.82661529885126      0.89993710073100
  N   4.82107537909674     -3.92770267509420      1.55774643073289
  C   5.70698972289062     -2.26041566548048     -0.00367532071949
  N   6.94329888604577     -2.86081606633705     -0.30162223540963
  C   7.76250566999515     -3.29396972402503      0.80848878084353
  C   8.64770056290673     -2.23613686220822      1.33562619220065
  N   9.36763050483777     -1.43855483914057      1.73593097804549
  C   7.42205426499553     -2.96775529116307     -1.58027609200344
  N   6.84497229682010     -2.67913225313190     -2.67620209116522
  C   5.19454651179482     -1.03597132839004     -0.42113956697519
  N   5.61585975259387     -0.05059553269615     -1.24486727770372
  N   4.80693039595985      1.06481965821715     -1.60000074200822
  N   3.65233792655812      1.15779743179685     -0.97069911368698
  H   3.99286309622912     -4.04291464842917      2.13449579372153
  H   8.39238738304921     -4.13052603237016      0.50275820068781
  H   7.10286323817952     -3.65031899611762      1.60426586295175
  H   8.44625598239835     -3.34303830842895     -1.61127030589162
  H   5.88813622542895     -2.36276933163874     -2.51403814509234
  H   6.42678341067754     -0.15950550659897     -1.83028355064050
