22
Coordinates from ORCA-job 17902optt
  Br  5.71516422380586     -1.71949050945859      2.21233094932435
  C   5.16738041023738     -1.32151755574165      0.45298661253117
  C   4.88652009929151     -2.29188732042959     -0.48628669146213
  O   5.20708641002564     -3.62639945761114     -0.29871704270884
  C   6.48865367434331     -3.99655903875154      0.02380803413934
  N   6.73977907857699     -4.73391373870837      1.00762830010581
  C   7.63729791072699     -3.76891946434948     -0.94192484742583
  N   8.58176271300202     -2.93883190479724     -0.86705080745364
  C   8.51142244305180     -1.82444136954505     -0.00579476202377
  C   7.72319394553909     -0.81066725783912     -0.34286153790864
  C   7.44455817162770      0.46021130521061      0.40946697754221
  O   8.31723062241655      1.05971286721200      1.01405283064674
  C   6.07481095686695      0.94341847070553      0.17515883611785
  C   5.09559328502490      0.02414632592272     -0.05073427388715
  O   4.01968464113148      0.24252228949611     -0.83713394225613
  N   3.80593781627664     -0.85263802269672     -1.90212706354842
  N   4.34797413610834     -1.97815952417771     -1.65374128020092
  H   5.89270222525386     -4.86103029627396      1.56395943471260
  H   7.70072018293826     -4.54004495435448     -1.71087339436359
  H   9.15754629543026     -1.82912320934196      0.86455586212594
  H   7.15801657099496     -0.92486211766081     -1.26037748911382
  H   5.91896418732938      2.00247448319046      0.01867529510688
