20
Coordinates from ORCA-job 17910optt
  Br  3.98097607316002     -1.11859839334569     -1.57960207181625
  C   2.96368919204571     -0.25599034511624     -0.25674646762091
  C   1.70199868201335      0.15662959593616     -0.36574998375386
  O   0.96249994322644      0.02249674675494     -1.54424090134342
  C   0.36312096396421      1.21212064553975     -1.83587248443323
  N   0.88813437637253      2.28741602299310     -1.46208067443709
  C   0.12680319795309      3.41469091593967     -1.16415915573535
  N   0.09259718649990      3.98823143473870     -0.02629053898493
  C   0.75513934753661      3.81041670746996      1.16812281262127
  C   0.53439952396684      4.92738201057794      2.10851186393118
  O   -0.20471807824473      5.87572366845797      1.95244537214677
  N   1.65283602970935      2.93494127583811      1.65698593866909
  C   1.91032170316430      1.71272144966961      1.25224577066782
  N   1.09501322419896      0.90728489509453      0.58858465406969
  C   3.27409266342971      1.17332333831658      1.61417972826660
  O   4.00577891159734      1.54822099662408      2.47605686482735
  O   3.65583733701257      0.06078348817284      0.87498630488937
  H   -0.62419452571030      1.07245753006019     -2.28220976115992
  H   -0.51536375212942      3.82127797709353     -1.94964742629867
  H   1.13503800023349      4.81947003918421      3.02948015549451
