25
Coordinates from ORCA-job 17912optt
  Br  1.03502104349791     -0.39522004221500      0.32461523745901
  C   2.81797348555255     -0.31969624097463     -0.32395075541738
  C   3.69853947603497     -1.32046014027516     -0.11736805227208
  O   3.36385630387551     -2.55344365398999      0.35827630255238
  C   4.52226176921293     -3.33945386048688      0.39004303397430
  N   4.53025987935454     -4.55685620571750      0.80291623251136
  C   5.59776211594991     -2.53449998728879     -0.04914326700172
  N   6.90266356909715     -3.04240646299730     -0.06281371893783
  C   7.74778889199787     -3.00430010320982     -1.13415303943375
  N   7.61818677226823     -2.37964136277919     -2.23780867772413
  C   5.12079826018033     -1.23601672729582     -0.30745380251056
  C   5.74844015172013      0.04408315479942     -0.34088913663249
  C   7.20907372604576      0.15426755532239      0.05436373462537
  C   7.44988460845403     -0.18223416551106      1.45864192543574
  C   7.64205860043853     -0.44621381069845      2.61220734691993
  C   5.04702775404255      1.17964009895130     -0.58654386706680
  S   3.36098485840679      1.17188953883738     -1.07902101668015
  H   3.59657443999666     -4.83614438576491      1.08887006986181
  H   7.07132883082709     -3.76751196996577      0.61981778741945
  H   8.66385628875057     -3.56870130381707     -0.95597892098631
  H   6.71304545168762     -1.90724672810592     -2.27672808574160
  H   7.55540483321210      1.17333512579940     -0.12752274506529
  H   7.81176971765700     -0.50661768955150     -0.57379388393971
  H   7.79901406069028     -0.69795978061469      3.63244246560775
  H   5.48842511104887      2.15840914754958     -0.44902516695730
