21
Coordinates from ORCA-job 17929optt
  Br  1.75984698739633     -0.71419446859132      1.90701466177166
  C   2.69351434709512      0.53277417083706      0.85531893310253
  C   2.19997942898144      1.57456001522036      0.15939228349008
  O   3.13468155484758      2.47702609443303     -0.35946157912316
  C   4.18804068195575      1.94846084979979     -1.05241824642165
  N   4.58601048152911      2.59253441787810     -2.18514782510518
  C   4.53055159935451      3.98287535123282     -2.54969343573921
  N   5.65654769190821      4.48401154416346     -2.89072328282102
  C   3.25624453749690      4.71496779565259     -2.48996104628379
  O   3.27725492844525      5.97086297269007     -2.51291611448808
  C   2.09550535745851      3.90912100141366     -2.27415341916338
  C   1.01380767643564      4.30168826984397     -1.56450446631940
  S   -0.09150983421964      3.13110462918866     -0.91700105535918
  C   0.72607088515885      1.80746377271767     -0.03489845017166
  O   -0.04806128601573      0.99519607345727      0.42171498866366
  N   4.80901884868879      0.88896071295624     -0.68815137987805
  S   4.39429754087531      0.20942849220147      0.78768229900026
  H   5.47145542469124      2.20837856013698     -2.49267315815906
  H   5.46859489094802      5.45095762808035     -3.16080855874943
  H   2.16422582941143      2.86486187908888     -2.55562954933042
  H   0.92192242755735      5.31296023759885     -1.19198159891551
