22
Coordinates from ORCA-job 17922optt
  Br  1.52396691177046      0.04715569273138     -0.35152179583091
  C   3.30914513801561     -0.54045896647619     -0.27361008950451
  C   3.88054970629155     -1.07408560929089      0.84193155596550
  O   5.23708068459855     -1.19310555320980      0.84244302353732
  C   5.96577938839993     -0.91665478551840     -0.27747904934445
  N   7.17128825115808     -0.56179740288761     -0.26426993543404
  C   5.12861851915843     -1.19311893827980     -1.46530405962148
  N   5.44075774266814     -2.32992862486538     -2.21354479066098
  C   4.78355670279678     -3.41275314978806     -1.38311542971672
  N   3.55242140295290     -3.67800641059544     -1.49272094737653
  N   5.69239078893793     -3.99883676001891     -0.57443217830933
  C   5.62071758803943     -4.23985346403940      0.71831203239455
  C   4.86573774639527     -3.83558344376122      1.86766133842084
  N   3.85820482545093     -3.06731705705728      2.22647004715392
  C   3.18688983386083     -1.97878410064120      1.82376471426392
  O   2.06109486435446     -1.68559598914433      2.20194434520330
  N   3.91926799455292     -0.75879472678620     -1.47024098339717
  H   7.50723332357454     -0.48894619062921      0.69533972703359
  H   6.44093765370659     -2.50159977405151     -2.16678307577477
  H   3.13457999404591     -3.09767278566024     -2.21711061544821
  H   6.41759568465909     -4.90644839970481      1.04898644042250
  H   5.26218525461154     -4.38681356032544      2.72427972602365
