21
Coordinates from ORCA-job 17920optt
  Br  0.98105254625201     -0.43228284185829      1.56578937287126
  C   2.29443594430673      0.17594184736106      0.35824736693679
  C   3.31211401394292      1.04028114318361      0.80052438807888
  O   3.09255297042547      1.77035247389464      1.98022767948787
  C   2.00088508547022      2.54006832953104      1.91607788391504
  N   1.39158571344967      2.73721112264629      0.82388178925264
  C   0.22247587983751      3.47590109437647      0.76265650041429
  N   -0.12960973138342      4.33606280416761      1.63185890056185
  C   -0.57456320033492      3.26634480561649     -0.50667653527970
  N   -0.69358078584639      2.27282465775398     -1.26191553823298
  C   -0.24264563803709      0.91805928913926     -1.13357900471122
  O   -1.05994919146653      0.11200936433551     -0.76048131074181
  N   0.98433478231990      0.70868307901569     -1.69456018733523
  C   2.06646251895996      0.43557141109882     -1.02944416933927
  N   3.26562977546180      0.52862215072014     -1.70031984702834
  N   4.48298272711287      0.88612085295382     -1.11989526325175
  N   4.36946615673342      1.35734251910649      0.11484349185248
  H   1.70899431752965      2.92808564605651      2.89019385747360
  H   -1.00609875938614      4.77636053362909      1.35402522550778
  H   -1.12796328103332      4.16894212795711     -0.79125473526846
  H   3.20143815568564      0.82049758931461     -2.66519986516372
