23
Coordinates from ORCA-job 17931optt
  Br  1.17007667370297      0.58148253332453     -0.14263859951377
  C   3.06829569105797      0.38140657318556     -0.26930047047890
  C   3.61988603412590     -0.91877791698405     -0.08449287720770
  O   2.93182614683501     -2.02005243980100     -0.72749674815046
  C   2.19932651847121     -2.85341023921588      0.04405494456916
  N   0.99443750537686     -3.13544171727755     -0.16528616634943
  C   2.97171639616697     -3.64087972804984      1.12617415662513
  N   4.29859973222114     -3.12730838355731      1.39557171405822
  C   5.19075381292904     -3.32504823573136      0.33092149623412
  O   5.44290846457986     -4.43199243794193     -0.10457265514174
  N   5.75033925548570     -2.17467639039644     -0.14618873016151
  C   5.05476303885556     -0.92862441737504     -0.20253424372695
  C   5.75221162403963      0.23950977279138     -0.35831392871162
  N   5.19770150377048      1.46447595562967     -0.48965054732263
  C   3.84983065921222      1.49312282681125     -0.42670537707677
  C   2.19259679818274     -3.73064061715428      2.36790624944842
  N   1.61599026495458     -3.80888864065676      3.35421619122437
  H   0.63737109461103     -2.55306186328686     -0.92316577139577
  H   3.09055779662345     -4.65573648427356      0.73760094689448
  H   4.24055749074020     -2.15123503893355      1.66470507828667
  H   6.43248210087085     -2.34438950826658     -0.86924445358199
  H   6.83896322903271      0.19653284362564     -0.37508579445266
  H   3.37880816815384      2.46863355353397     -0.49247441406867
