20
Coordinates from ORCA-job 17949opt
  Br  2.41626634636018      0.18042221788848      2.00786218491739
  C   3.52996363554792      1.04583136907424      0.75094088276981
  C   3.12400483426336      2.25904041679058      0.13811590483553
  O   1.90423810250323      2.81419792602041      0.44376772252116
  C   1.86238763498575      4.04628346850465      1.00350592789646
  N   2.76353406504918      4.77466430278724      1.47236601148837
  C   4.12983582674517      4.51729272234750      1.58900382095587
  N   4.58172559711128      3.91957167025910      2.61389255987897
  S   5.15807494819900      5.36359228695629      0.39695340316577
  C   4.20964510305677      5.16024362106146     -1.27689140686398
  O   4.25923522894016      6.14541825140606     -1.97427052995761
  N   3.63399085403630      3.99929771075722     -1.47047154159433
  C   3.93558030650891      2.88571565454406     -0.76483855148123
  N   5.15881034136545      2.23750159540184     -1.03156326872453
  C   5.53890480941827      1.13907164756398     -0.28248094151314
  N   4.75869832850769      0.53712462175436      0.54713427589161
  H   0.83085174544536      4.38337283459079      1.02115107177289
  H   5.59753755813465      3.88611484213552      2.57371304036882
  H   5.85909872563216      2.80415006639511     -1.48477659532146
  H   6.54161600818895      0.76709277376089     -0.45011397100640
