23
Coordinates from ORCA-job 17946optt
  Br  1.05733841890391      1.44969738444838      1.53509528049975
  C   2.69135840233922      0.81932448841912      0.78132659732362
  C   2.85577220697069     -0.54342551329082      0.59060039578815
  O   1.86351357793495     -1.40428550381333      1.02668382602723
  C   1.31481770766655     -2.16299669664900      0.01516747310938
  N   0.29435824380162     -1.84005550841325     -0.63255236072879
  C   2.05068632280716     -3.45146812964039     -0.17976219618621
  N   1.38256020523617     -4.51786381617329     -0.39829776961994
  N   3.41107693613497     -3.37826199625098      0.00266626835241
  N   4.31578621672103     -2.35989904586211     -0.23211448004052
  C   4.04540103027256     -1.09239016649134      0.00506608897999
  C   5.06203780503658     -0.12156232633371     -0.33265048170360
  C   6.32491790594741     -0.21853280991684     -0.88934017386199
  N   6.91650491984378      1.01302928973070     -1.01235797620156
  C   6.05248330867683      1.90628569369610     -0.54921934746463
  C   4.85496540283383      1.27928001833522     -0.09906361205367
  C   3.67310255942223      1.75399482764653      0.44973732362278
  H   -0.02861610901313     -0.92588459303456     -0.30766024294419
  H   2.00589939656070     -5.31861007172066     -0.50820651155279
  H   3.87377197990142     -4.25932658333552     -0.15900409327755
  H   6.83707540155933     -1.11344652286885     -1.20852829247723
  H   6.27617249239000      2.96518460994412     -0.53774333376992
  H   3.49501566805215      2.80721297157450      0.62215761817928
