20
Coordinates from ORCA-job 17944optt
  Br  1.77159116131993     -1.48811094488828     -1.30598499937554
  C   3.02158588654551     -0.35873984522288     -0.47593940425803
  C   2.67369228863180      0.79081979582775      0.12993495307313
  O   1.33355713823125      1.10147683510604      0.23479461633187
  C   0.82812444389789      1.89709361317237     -0.77444252654528
  N   -0.28825960956924      1.67380924742653     -1.29491678190069
  C   1.66722010376177      3.11578678223758     -1.05815350729663
  N   2.08043734459118      3.32570575256843     -2.23919248038125
  N   1.76219180460882      3.93965551212666      0.04294012513303
  C   2.45930041487682      3.67109019856698      1.10178740697048
  N   3.43652727676267      2.78626294274555      1.33898150883061
  C   3.67622645526574      1.63957189507758      0.73553705349661
  C   5.04268023020617      1.13518233548709      0.76011577497085
  O   5.98114535419701      1.71793670048740      1.29616481144294
  C   5.33508321028833     -0.16940409050844      0.07301698878739
  O   6.40294867044456     -0.69562797278244     -0.00296493248810
  O   4.26875988125243     -0.82592324453438     -0.54850665189244
  H   -0.67512936852786      0.81255195637338     -0.90497805158354
  H   2.60354161577966      4.20312946554023     -2.24775537205126
  H   2.32477569743552      4.37873306519284      1.91956146873584
