23
Coordinates from ORCA-job 17952optt
  Br  1.25718329518463      0.64959195426317     -2.08966188796909
  C   2.13930322776644      1.92430303869063     -0.84357590261527
  C   3.61896769732237      1.99862275118794     -0.90325535473410
  O   4.47368591084797      1.08066004972488     -0.44146898375525
  C   3.97459994706302      0.44194851040181      0.70637110786995
  N   4.62428951296569     -0.52149373690162      1.18340191325329
  C   2.69935536393429      0.97904770140411      1.36992927747987
  O   2.55829111496601      0.70505993398180      2.55673422369562
  C   1.69823251410207      1.71060754878297      0.58610384849390
  N   0.57414716932571      2.00489862873517      1.17888404040218
  C   -0.61680428284520      2.61048576638995      0.99410812564953
  N   -1.70303772145975      2.04469138547826      1.38326278593730
  N   -0.65602158439930      3.97274352742158      0.46023881311377
  C   0.10130586732891      4.06520617352469     -0.71852844102181
  C   1.42386331190415      4.13990515121724     -0.59818782357144
  N   2.15547424460308      3.30842765585623     -1.47432211448465
  C   3.60314022227275      3.24636892905898     -1.35840517262596
  H   5.44384697282779     -0.69811296099145      0.60242855320202
  H   -2.50507130000392      2.63481196460658      1.17814998070604
  H   -1.62363277714215      4.24261367887761      0.34944690583202
  H   -0.32722189057126      3.71607158453992     -1.65775408827352
  H   1.88584730777176      4.46989952833357      0.33138972171214
  H   4.30425587623490      4.02964123541593     -1.60028952829655
