19
Coordinates from ORCA-job 17957optt
  Br  0.98384398163063     -0.16122704570235     -0.00929275496407
  C   2.86028317450580     -0.11964314054774      0.00500550428443
  C   3.63753944660130     -1.25115948787047      0.01040005387690
  O   3.02293725285097     -2.46614002381877      0.00983743443952
  C   3.80551804608327     -3.56587754972526      0.01513482470277
  N   5.06433485598416     -3.60827771954786      0.01921819485420
  C   5.82039228264875     -2.39952140971820      0.01860753880935
  O   7.03438614184832     -2.45296443011019      0.02007396335589
  C   5.04756840870685     -1.16505010461937      0.01602961697203
  N   5.72203472370765      0.00521762953222      0.01746643421435
  N   4.91969036517479      1.09561213167942      0.01481319530417
  N   5.46051960945417      2.30099763444021      0.01807378094551
  C   4.41789278532053      3.13670833086279      0.01402984351414
  C   3.18487973818026      2.46190168467927      0.00805436340959
  C   3.54294542091224      1.12746389733937      0.00855562731103
  C   4.62397490405975      4.54691992867896      0.01614346351532
  N   4.74758588105841      5.68971806582457      0.01718305545403
  H   3.19040310727100     -4.45948918131322      0.01544982794782
  H   2.19326987400112      2.87681078993662      0.00421603205301
