25
Coordinates from ORCA-job 17959optt
  Br  1.24139626662816      0.09355723330189     -0.28191666433831
  C   3.09914187235644     -0.09149711513244     -0.13510788542877
  C   3.72043002447874     -1.26710142062596      0.02853752851156
  O   3.05883637339752     -2.43515199024933      0.11399600602463
  C   3.66558533786977     -3.57850577514420     -0.52560606430351
  N   2.85652234774889     -4.45397233653019     -1.01289345866765
  C   5.09491668426726     -3.64862611800300     -0.47674121531494
  O   5.76779733449831     -4.57587027765365     -0.98816967622448
  C   5.82315738106003     -2.56850043933986      0.32997782682180
  C   7.28521602554702     -2.45293304502922     -0.06947348602037
  N   7.86387141045603     -1.28969120993175      0.60536026368687
  C   7.33171201679758     -0.03643202070804      0.09513710152087
  C   5.83255366503752     -0.08021313979000      0.02481421999077
  C   5.12086625965522      1.16584627074443     -0.19988730342771
  N   5.58795721966554      2.33666309458033     -0.37522377044126
  O   3.74746479776254      1.08776944927759     -0.20150501252572
  C   5.15634309633460     -1.24479034669930      0.13700748139159
  H   1.90339988122816     -4.11292070922908     -0.90963820914024
  H   5.78507959751468     -2.81483696565030      1.40271252740729
  H   7.34283564725429     -2.37952525256762     -1.16477536463199
  H   7.82153580931762     -3.35167422724891      0.22588586355430
  H   8.87028497745138     -1.29219355830374      0.50818575045061
  H   7.71356781928819      0.21013226268801     -0.91239100455773
  H   7.64087757308529      0.77590048166051      0.76105020610351
  H   6.60165058129911      2.30956715558387     -0.35233566044111
