21
Coordinates from ORCA-job 17965optt
  Br  -0.18419805386836     -0.08097459959864     -0.17887841621076
  C   0.39601406016378      1.59740897748837      0.45811884754857
  C   1.29533576306780      2.37024219495907     -0.14919479118481
  O   1.65006887584229      2.23875413700148     -1.47794941795457
  C   0.87722554933378      3.11385715050870     -2.22615338200860
  N   -0.11530067559042      3.64710376752336     -1.68995280472520
  C   -0.82530042833287      4.76797401322391     -2.17880646996964
  O   -0.63974761986531      5.23133588527834     -3.31026700089549
  C   -1.74164237310838      5.33417640980721     -1.23467932409151
  C   -2.23139337312639      4.88766996998858      0.01659247902258
  C   -1.84867389752470      3.78398329808125      0.86021690951420
  C   -0.58368789932679      3.43269881774732      1.18323048541541
  O   -0.27188556390378      2.09457257841535      1.54114885662472
  C   0.63544433783390      4.18568947755988      0.95506625594686
  N   1.64211519721207      3.61010114775495      0.40224952837280
  C   -3.44990430781601      5.51991303651118      0.42968277051547
  N   -4.43038859561002      6.01650997509693      0.78090428510347
  H   1.29306226356805      3.26860150896459     -3.21938427825610
  H   -2.24775438422412      6.20562936619760     -1.63358430038476
  H   -2.64989418850004      3.15115008937323      1.23654882001667
  H   0.70950531377553      5.22560279811724      1.26209094760070
