24
Coordinates from ORCA-job 17968optt
  Br  3.05487245192418     -2.10168305718221      0.13666041434220
  C   3.18951781563716     -0.23629937460702     -0.10953206308297
  C   2.11768400307348      0.64123892309062      0.05582507623661
  O   0.90296094757952      0.14826845212485      0.43839846084605
  C   -0.11306695830764      1.02298418527002      0.76755695631011
  N   -1.30105381034092      0.60553810769144      0.80905467036234
  C   0.25651541433531      2.46173103730092      1.12254684452246
  O   0.92746544174649      2.67931370061388      2.11975244659865
  C   -0.28407611180684      3.42633669188933      0.20628449991048
  C   0.22704757776032      4.64349508452028     -0.14247890772096
  N   1.46227957961054      5.23255707383356     -0.02740498489284
  C   2.81295495016596      4.92150612469981      0.03013983742400
  C   3.64344379992634      3.83833593139726     -0.19625080366184
  C   3.46254856612728      2.45112867265263     -0.34390258045665
  N   4.56130987148049      1.66692196191870     -0.58962910245130
  C   4.39771061653757      0.37107424479321     -0.48458002291356
  N   2.23254309172417      1.91114523664783     -0.15188045979686
  H   -1.33161108969620     -0.37856833277563      0.53920114630207
  H   -1.23467173566329      3.16338814206092     -0.24134801995370
  H   -0.45896572388653      5.32105420842269     -0.64365334774415
  H   1.36988817518071      6.22928798345407     -0.13135259026127
  H   3.35950601524072      5.84625564793656      0.16932239438592
  H   4.68788027750696      4.12507453694689     -0.22055914928030
  H   5.26231683414421     -0.25808518270064     -0.68017071502451
