22
Coordinates from ORCA-job 17961optt
  Br  0.90057339139849     -0.35429636388923      0.02001628887466
  C   2.74738586719069     -0.16087601931776     -0.22651223622843
  C   3.64510284431953     -1.15602588104060     -0.14811690404068
  O   3.38088825745106     -2.46848630748650      0.05517298405241
  C   4.61853598584133     -3.17112300146640      0.05821674861981
  N   4.65927059100171     -4.45071677104634      0.18539779429200
  C   5.61883073106897     -2.19921756909975     -0.10971103051524
  O   6.94428905111315     -2.58320435688652     -0.31431548203012
  C   7.88001234950311     -2.00736600833048      0.39393575654173
  N   7.82227135506976     -1.09097490696615      1.30319173084413
  C   9.15256282132430     -0.89816221064052      1.65235348000744
  C   9.93663639432918     -1.71082637984714      0.92461290645653
  O   9.12044160071862     -2.44063374186104      0.09940093695133
  C   5.05287660205439     -0.92281103434227     -0.26225827586857
  C   5.44217496898839      0.43468034803604     -0.34589455981778
  C   4.49760151218505      1.40170854535882     -0.42271398140455
  O   3.13111789447589      1.14538406309967     -0.47643925419031
  H   3.71319817841999     -4.81108882960616      0.26751941919983
  H   9.44158279397905     -0.18313229452249      2.40399076608440
  H   10.99209762763363     -1.89818053171869      0.85725212263542
  H   6.48116890542752      0.73070127496871     -0.30969472027411
  H   4.69438027650611      2.46064797660483     -0.46940449018993
