25
Coordinates from ORCA-job 17970optt
  Br  1.20806153790040      0.25661023972832      0.72593014839447
  C   3.06466167028693      0.11580387105384      0.45292856086798
  C   3.81965320971525      1.26055654183322      0.48771027737738
  O   3.28570844696503      2.43610013996213      0.77686660176981
  C   3.83333538756410      3.68115760837715      0.26892746825338
  N   2.98687772594228      4.63068213584476      0.07222042615841
  C   5.24531284549392      3.70227224259025      0.12571243439140
  O   5.93595333667775      4.68635816757412     -0.23052010252434
  C   5.97912129246939      2.42644629538972      0.49424633862890
  N   5.17261071046480      1.22513533766553      0.26371598523191
  C   5.73864800406745      0.01721144935723      0.02028173701717
  C   5.05410724520102     -1.13566875335706     -0.00999015284118
  C   6.00272085977595     -2.25144217375950     -0.30567982461118
  O   7.28256038068921     -1.62635936435095     -0.43248345180668
  C   7.19097666873150     -0.22223574325335     -0.25202234762530
  C   3.62613991843688     -1.20395117455958      0.22539519062652
  N   2.91265791141454     -2.28121616928867      0.22713353007041
  H   2.04775682130175      4.28618370564888      0.25766599678441
  H   6.30628357093687      2.43799840533868      1.54349541004488
  H   6.86641890490828      2.37374275106674     -0.13628396757647
  H   5.76235673954062     -2.77687609102714     -1.23696367424370
  H   6.04298984460106     -2.99344656527265      0.50002947105565
  H   7.53142177856455      0.29762274775513     -1.15423723168088
  H   7.82823991701987      0.09157570558820      0.58192306425054
  H   3.50742527133053     -3.08626130990502      0.04099811198647
