24
Coordinates from ORCA-job 17978optt
  Br  1.62547697031817      0.02972654424330      2.33218633377192
  C   2.43149351041520      0.41599114523558      0.63741588026273
  C   3.14594988162983      1.52010881435553      0.42023318567972
  O   3.27367892354349      2.49261100490577      1.40241288956881
  C   2.21523595936860      3.32389071859915      1.56961126680434
  N   1.83912862811301      3.70344696474253      2.71185640027450
  C   1.57156721804503      4.00571457654726      0.36491449701869
  O   1.41954943520086      3.28045630016594     -0.83004389763121
  C   0.49600202224807      2.29151986853991     -0.92149577096505
  N   -0.31862424327413      1.91101144480868     -0.03643376974659
  C   0.56478091298841      1.63327212339435     -2.29160875780307
  O   1.00467124060947      0.28280190660325     -2.24070435710178
  C   2.28913425073668      0.09177100399011     -1.69300096120453
  N   2.21195377570155     -0.49114359031515     -0.37323042081146
  N   3.21388860257476      1.03824544560761     -1.93464948114559
  C   3.75377772761717      1.75449868141788     -0.94127483332210
  O   4.62590282749041      2.61805345747047     -1.04540442721986
  H   2.40546550156977      3.23954410776343      3.42273051483567
  H   2.23500121090708      4.82890158711330      0.09724325559835
  H   0.61904003186336      4.41177404922073      0.71030265724533
  H   -0.20456618137387      2.39197148241324      0.85509115865205
  H   1.22674370321875      2.22215546977124     -2.92621172032624
  H   -0.44217968151037      1.59869415737539     -2.70557623571841
  H   1.41492777199865     -1.09501726396954     -0.24036340671622
