21
Coordinates from ORCA-job 17979optt
  Br  3.79822084954204     -5.25872652532488      3.85734256100528
  C   5.01027755524750     -3.84367283869488      4.22311026344459
  C   5.10041687200551     -2.77193068977997      3.40818783641405
  O   4.36347859901783     -2.71237261478708      2.21845040961255
  C   5.05819748546662     -3.13980875585251      1.12017629475695
  N   4.88210148259978     -2.66276956320143     -0.02696410019209
  C   6.01399682330647     -4.34446996199915      1.28818143306799
  O   5.63815188252785     -5.41528442006680      0.90802656478921
  C   7.36597087590603     -4.10864047423876      1.92696598773512
  N   7.75973753359686     -4.91762379892656      2.80371494573350
  C   8.95921895261719     -4.64302639209047      3.59286702780225
  O   9.99468240855417     -5.19153687452212      3.26505269151796
  N   8.74044467516667     -3.85239973158691      4.65193706706581
  C   7.56800365312102     -3.22658492455813      4.78043600471850
  S   6.14159594668789     -4.06353538576164      5.52722164496126
  C   7.28089245389144     -1.99259341915375      4.18209965011873
  C   6.07404410867810     -1.73650461609016      3.56843513706110
  H   4.20241097029049     -1.90179472275961      0.01198960489773
  H   7.88287355137481     -3.18257540078911      1.65560609936738
  H   8.12606925516760     -1.33907202153493      3.98870556687472
  H   5.92721406523399     -0.83107686828107      2.99345730924737
