22
Coordinates from ORCA-job 17985optt
  Br  1.06771790183392     -0.45726614422496     -0.60549040307471
  C   2.84038504865994     -0.13641935161920     -0.02578611068468
  C   3.76062760538137     -1.11726148447455      0.00916922284205
  O   3.48945946572246     -2.43080089350846     -0.21759679272804
  C   4.66788972171014     -3.17496333904199     -0.03121825962449
  N   4.70019027303676     -4.45079161996645     -0.14200241700404
  C   5.68239901655010     -2.24292115620071      0.27156503026094
  O   6.95658771306400     -2.67892082694870      0.62168675803841
  C   7.90870277185348     -2.69706083871590     -0.30444456574916
  O   7.85829160476724     -2.21083311517839     -1.39755593935424
  C   5.16624255512319     -0.94084124093570      0.26940077002671
  C   5.73367697714050      0.35386142306622      0.16644289374064
  N   7.13311931570037      0.44656569772744     -0.02319932573329
  C   7.92161672326325      1.36296827862743      0.58038845430004
  O   9.11007476017008      1.50204305033413      0.37906629222549
  C   4.98125559651457      1.49309274130482      0.12947873447092
  S   3.26243224027069      1.49794049723393      0.47498165809002
  H   3.77558896425173     -4.79814226603072     -0.38089937683938
  H   8.79025851125198     -3.20971852976581      0.09877614178604
  H   7.57173422424740     -0.21126564802899     -0.65953814978697
  H   7.36293403806224      1.98087833794536      1.30103330707603
  H   5.40781497142454      2.43085642840122     -0.19825792227829
