23
Coordinates from ORCA-job 17982optt
  Br  1.04940713116587     -0.04120014077273     -0.53952781845615
  C   2.93584413378172      0.01688837625697     -0.37541282445524
  C   3.65508960931666     -1.14952689052085     -0.37385602740390
  O   3.01801742597747     -2.34402958750081     -0.67916807074590
  C   3.62376028476944     -3.52377198123625     -0.42856780027967
  N   3.07413341760099     -4.62850317410822     -0.66821287929698
  C   5.00525526689841     -3.43438104822730      0.20428188453078
  O   5.70466765538851     -4.60801960959213     -0.07788226997252
  C   6.80224306765724     -4.82269372693566      0.67971933419799
  N   7.56368953371572     -5.81094224284634      0.54760574092683
  O   5.72340218197556     -2.35419542430150     -0.30776181185304
  C   5.01740942684629     -1.17139816209070     -0.07666528262471
  C   5.69265590047542      0.03719203491590      0.21335271360887
  C   4.99657635782430      1.21102653224143      0.21279477144905
  C   3.59826004985272      1.26965422082255     -0.08309864268921
  C   2.94465893499127      2.50727331902426     -0.10916417353288
  N   2.44292780244830      3.55647110202434     -0.10115505166734
  H   2.14618485528059     -4.46645389316732     -1.06045763546197
  H   4.88306071726719     -3.30711735252428      1.29114270623744
  H   6.98584721610527     -4.06374948186839      1.44008993790947
  H   7.23720747002693     -6.40320000589935     -0.21735525348217
  H   6.75092966588976      0.00999586647342      0.43782557727492
  H   5.50177189474423      2.13768126983305      0.45347287578634
