20
Coordinates from ORCA-job 17992optt
  Br  0.78103261348850     -0.25066769107191     -0.08342867712072
  C   2.64128071207694     -0.03605722273333      0.00361025177023
  C   3.22154875525177      1.16081812572863      0.04269497318629
  O   2.59098105190314      2.37244401634502      0.03199575335244
  C   3.60103201091130      3.27833585165035      0.07932121434265
  N   3.33280348495585      4.56820633136856      0.08034200018607
  C   2.06187332361877      5.26846291751898      0.04636810508226
  O   1.00839221217126      4.64513452275999      0.03937793788056
  C   2.28337215530039      6.69817281048222      0.02159418955959
  O   1.39628201904208      7.55409628036903     -0.02117187282481
  N   4.82215985643496      2.76570796987029      0.11731349240120
  C   4.64698270212416      1.42204775771729      0.09624857578045
  C   5.58321100520238      0.42584221497151      0.11377440742898
  Br  7.40708749303840      0.91874305363030      0.16401485287786
  C   5.28563184166545     -0.98545377594179      0.09685591770545
  N   6.07379405658620     -1.98713197552898      0.12096901342935
  S   3.56824367123123     -1.50529743455829      0.02766741197553
  H   4.16575510744456      5.13848598873043      0.10913375425530
  H   3.35119659317746      7.00202778525710      0.04146068797659
  H   7.04233933437514     -1.67691752656541      0.15885801075474
