22
Coordinates from ORCA-job 17998optt
  Br  1.40294132353546     -0.32867802338238     -0.75722443708896
  C   3.05794464484035     -0.05367126420348      0.08281557906285
  C   3.71185116201358      1.10041532362820      0.09290646660229
  O   3.32512358559023      2.30707047197638     -0.34107160750309
  C   4.37516298322843      3.23062007554103     -0.07248089903456
  N   4.24810410150291      4.48320497689026     -0.33202154014839
  C   5.45993076694442      2.51540920285064      0.49949012167814
  O   6.55306627797154      2.94337996363551      0.94234269721129
  N   5.02529756397617      1.13127535179678      0.58258405662220
  C   5.72722965255024     -0.07660003822105      0.34327914785481
  N   5.11873032103772     -1.20083972160898      0.33807157915511
  N   3.74817629108420     -1.15644938825153      0.67594473175168
  C   7.15918146560184     -0.09471653800540      0.04304624172614
  C   7.94143554164015     -1.13217727880086     -0.41502397271655
  N   9.23155634024748     -0.72104144140573     -0.55846611592759
  C   9.22616098764519      0.54552510996452     -0.18921716557742
  N   8.00563329513021      0.96894400434217      0.17920165968216
  H   3.32789252322644      4.65680691542574     -0.72842340681492
  H   3.34319991835999     -2.03471686877114      0.38525343842623
  H   7.62136763319096     -2.13398300547243     -0.64664048945024
  H   10.08839961443369      1.19270742416541     -0.17579933904613
  H   7.65861400624870      1.89851474790633      0.52943325353493
