23
Coordinates from ORCA-job 17993optt
  Br  0.75067917898124      0.03885154498364      1.77059973062391
  C   2.46017735766865      0.20527099785435      0.89236418911841
  C   3.23689367985594      1.24471313493468      1.31815319930384
  O   2.66156331131218      2.31664276033513      1.99183496067271
  C   1.72975294141621      3.06722217680623      1.32365402790512
  N   0.99692484764411      3.87388362330854      1.95522282372028
  C   1.67751693964414      3.10804170401717     -0.20540304713509
  O   1.64000775615376      1.87440304088148     -0.90391463253777
  C   0.45716857984400      1.30559908002948     -1.18887393682720
  O   -0.58903554170407      1.89161448044073     -1.19549570850591
  O   0.57036807703633      0.03847066058207     -1.57835951897754
  C   1.47814248465064     -1.00470241104914     -1.02177921493534
  C   2.67178995208672     -0.49327192715418     -0.30682514967894
  C   3.83804541464786     -0.31016352061386     -1.08019318132495
  C   4.95134898263981      0.48462811654547     -0.79127004545378
  O   5.97604145094723      0.65750996958530     -1.43529928570409
  S   4.87356123422395      1.48798141743010      0.77777219249846
  H   1.20670031522118      3.81263374578567      2.95218577878212
  H   2.60038588327421      3.58487339891897     -0.54125123195843
  H   0.81585611464885      3.71935240930608     -0.45985549859308
  H   1.76670339657499     -1.56940277655380     -1.90479294709347
  H   0.81997973713712     -1.60617150660247     -0.39940825585640
  H   3.88642790609493     -0.79698011977167     -2.04806524804287
