19
Coordinates from ORCA-job 18000optt
  Br  3.93394357897445      0.32646631723900     -1.91255507034864
  C   3.22463333479706     -0.72792063625618     -0.50705333534371
  C   4.04845813858567     -1.19271977328863      0.45943963296474
  O   5.38142444267791     -0.83451191075774      0.38804222576039
  C   6.23898812961148     -1.91988707974056      0.37733345150150
  N   6.44824136159303     -2.65023491484531      1.36423882270297
  C   5.76821190154604     -2.26868085314035      2.58722421989335
  O   6.44930121861603     -2.01369718226809      3.54867470807938
  N   4.41003877655763     -2.35844069053916      2.59532488972564
  C   3.61718906540253     -1.99945476456419      1.62037507581636
  C   2.24126885117845     -2.32280299603685      1.65461114889926
  C   1.27316127744038     -1.93138895182689      0.73053038316085
  S   1.52345682943467     -0.95119832472626     -0.64534740219796
  C   -0.00001366564466     -2.49378678004032      1.14955640882714
  O   -1.08428107277359     -2.36939896719437      0.57996830300781
  N   0.23580215376825     -3.21809093055188      2.33894336849944
  C   1.50680729406016     -3.10899674455872      2.61556231546710
  H   6.72632963463199     -2.06454658374762     -0.58371005331555
  H   1.95403874954248     -3.56870823315584      3.48684090689993
