22
Coordinates from ORCA-job 18006optt
  Br  0.63825294188024      0.48259906789447      1.90183153656614
  C   2.13190007435735      0.66759777667743      0.75930398728119
  C   3.36688224823607      1.14537882062780      1.19293571303894
  O   3.39197672000518      1.95903949153226      2.32885071908018
  C   2.46696231340691      2.95051799298681      2.21521325465334
  N   2.01310490596673      3.26469178579697      1.08803746630170
  C   0.76784516207843      3.90483394397101      1.01559756198711
  O   0.42573812802889      4.84609246009583      1.70862911067664
  N   -0.07310133411014      3.32800256399408      0.10799345546377
  C   0.02501151151102      2.41908612792025     -0.97208044414631
  C   -1.04478057828811      2.65230564747921     -1.90174342398743
  O   -1.93359168556740      3.49846823036854     -1.75910288394073
  C   0.94755663007448      1.42079893483846     -1.32313627732248
  C   2.00257989408487      0.79376149240517     -0.64458084712089
  N   3.11721318223216      0.40724715579694     -1.35886535274728
  C   4.25529580283150      0.47151222865512     -0.73204299633460
  N   4.45897641959957      1.03356777569637      0.49071658753867
  H   2.14246581062848      3.33472038678729      3.18086656929773
  H   -0.95335786783863      3.83383822502631      0.04042261768884
  H   -1.04014818319484      1.99513247916980     -2.78648955712202
  H   0.87600224283856      1.13440952425696     -2.36813708733579
  H   5.14321566123866      0.14339788802288     -1.26221970951670
