19
Coordinates from ORCA-job 18003optt
  Br  1.55812968683214      1.78926969951824     -0.02282506937065
  C   3.15298792528553      0.82146288457788     -0.29186307878706
  C   3.24105045817902     -0.48397576511446     -0.02737059353991
  O   2.29244645501312     -1.20145080529246      0.63524943475129
  C   1.90411066466630     -2.45782428640910      0.21773305467382
  N   0.79714524509335     -2.91647910789554      0.58198494077413
  C   2.88295942787689     -3.33397489912583     -0.58785847589577
  O   2.40789750276176     -4.05528422873528     -1.42953123090810
  N   4.19447830746206     -3.36421133356659     -0.20977506300200
  C   4.88767587420484     -2.30095542195102      0.02125175561696
  O   6.15516706363268     -2.34047111595509      0.39514898930294
  C   6.70137865680333     -0.97738202924622      0.50538870041940
  O   7.85414110648994     -0.83565359198170      0.84533244364356
  C   5.62874593618790     -0.13847493494625      0.13851025501542
  N   5.52439128005646      1.16803283905837     -0.01309094876209
  N   4.30357978110013      1.50479662681864     -0.67678373535343
  N   4.52873522179204     -1.00480322367270     -0.13739299818591
  H   0.30011442923461     -2.21643819792677      1.13482567003744
  H   4.19486497732786      2.50581689184588     -0.67993405043004
