24
Coordinates from ORCA-job 18005optt
  Br  3.72250318668925     -1.53212140069862     -2.59850924295785
  C   4.75939761457788     -0.03230839411415     -1.89804009608724
  C   4.02059776427276      0.90565037979838     -1.12574849152251
  O   4.89286249641926      1.80655117242706     -0.36410225401764
  C   5.48656542633738      2.73861755132112     -1.12343689328056
  N   6.73853978158268      2.80007110194504     -1.27864387256071
  C   7.08995176675925      3.55864266268200     -2.42178769382396
  O   6.78717033609047      4.71101935835104     -2.60762645569831
  N   7.91629140641705      2.86053555278444     -3.31864231379826
  C   7.82365091160447      1.60208231181981     -3.54960836933325
  C   6.87605803812256      0.60680948666909     -3.08243249207480
  C   5.54142564039790      0.70241639558744     -2.89594533609478
  O   4.88303817780329      1.76897408329726     -3.47834208466079
  C   3.46277824405983      1.77814213574910     -3.37172529065872
  C   2.95573428641152      1.68662130326629     -1.88572727829846
  C   1.60449252331367      1.13248123405662     -1.86150708435377
  C   0.48052476389273      0.71445524336099     -1.86846848356934
  H   4.81552462303920      3.39367261756684     -1.68350890569283
  H   8.66310229866847      1.19597837969896     -4.12158575611794
  H   7.32572017144126     -0.30803722113555     -2.71234401233385
  H   3.05285306454101      0.93234426873756     -3.92426786291482
  H   3.14590887559731      2.70813489237962     -3.84077047184082
  H   2.88330249804200      2.68645183333427     -1.45057921853565
  H   -0.49999389608134      0.30581505111536     -1.85765003977305
