20
Coordinates from ORCA-job 18004optt
  Br  1.21541666853017     -0.08624988180560      0.09450783643978
  C   3.09216115257719     -0.12084064710721     -0.00419622170824
  C   3.81624075649018     -1.23891857878300      0.03913877812752
  O   3.13133624580263     -2.44010032034737      0.12841406369290
  C   3.87388704482407     -3.56656358180895      0.03044685533829
  N   3.08910650547572     -4.71070427704452      0.05297906085654
  C   1.73236462557028     -4.79066113988392      0.14002131741240
  O   1.13698730070697     -5.84763940748676      0.15029055502952
  N   5.13855200016336     -3.63711689084144     -0.06076726184094
  C   5.85880424430327     -2.47975421427072     -0.03655905126204
  Br  7.70932830211117     -2.77736074192607     -0.36589897657723
  C   5.26506493321314     -1.21634078130393      0.03514379025938
  C   5.88941485153664      0.07626692617297      0.16589723951349
  N   7.12934776944381      0.36949398233296      0.42939852598307
  C   5.02521362574396      1.28469601963359     -0.03555645040272
  O   5.41199324375529      2.40919436203879     -0.14371230468773
  O   3.64848565912200      1.10517719126239     -0.09505003419534
  H   3.60274911020067     -5.57868407565244     -0.00409727794908
  H   1.24070046685194     -3.81255529128065      0.20158178026008
  H   7.66884549357751     -0.47533865189809      0.58201777571035
