22
Coordinates from ORCA-job 18012opt
  Br  1.01307953560730      0.43921981036672      0.04535361635256
  C   3.07503290120006     -0.14869536146299     -0.80941704663389
  C   3.68663504761306     -1.26858159227582     -0.28324893101715
  O   2.89491929561630     -2.38375010834892      0.00814565874612
  C   3.24366069357364     -3.61746889741229     -0.39163358159611
  N   2.57858817896697     -4.64514279867918     -0.10150135757212
  C   4.51626420117054     -3.81607255808880     -1.22040953807716
  O   4.49536708753616     -4.33207194754679     -2.29330917369102
  O   5.67635651300011     -3.46486220696193     -0.64375532435840
  C   5.63426694724999     -2.57317413285610      0.48224019021577
  C   5.03709218914542     -1.26394058015384      0.04970903297384
  C   5.81026626172226     -0.11945587553767     -0.10529029418559
  C   7.18718724232371     -0.08189413966390      0.23841499497541
  C   8.35092736989749     -0.04915261480441      0.54179753702878
  C   5.21259930715514      1.08365951717065     -0.64822936330056
  O   5.77459093120770      2.14775179207819     -0.85609710110070
  N   3.85921716639710      0.93446522470253     -0.97440294318600
  H   1.76340499421952     -4.37624983835087      0.45180190151906
  H   6.66610466001848     -2.45675368178481      0.79671315220617
  H   5.05314357157391     -3.02528413736774      1.29026485385473
  H   9.38045755705739     -0.00610890058332      0.79981558825206
  H   3.43683834774733      1.77456302756140     -1.34996187140579
