22
Coordinates from ORCA-job 18018optt
  Br  5.43094282810097     -0.64189456684054      3.37810235005563
  C   5.49306457207923     -0.86416467416809      1.52191238233825
  C   6.25172722401234     -1.76562835804269      0.90581111733959
  O   6.15344434196297     -1.71879021400566     -0.49548340552429
  C   6.21870274169731     -0.40996375608254     -0.93078612778798
  N   5.54833302833658      0.51002726656716     -0.39106722566840
  N   4.79912078937380      0.07304394129946      0.71270702949832
  C   7.09912089622528     -0.13375447138128     -2.12282628027188
  N   6.68720017400364     -0.25252065551519     -3.32677126836443
  N   8.36072962936557      0.30177933236728     -1.84064085888352
  C   8.97530448980484      0.18771626564385     -0.56847921204083
  C   8.80631109008870     -0.93495107390845      0.14522337449250
  C   9.04247723204730     -1.11474490115284      1.56915951351747
  O   9.81760443026862     -0.39963559940692      2.24956783804360
  C   8.26631106307734     -2.17820832806563      2.20544874740494
  O   8.38725646965257     -2.71117574857505      3.26870678867422
  O   7.09664413392368     -2.65728287799162      1.39047932581790
  H   4.50833437970222      0.88302915455006      1.24005711394776
  H   5.70721813168069     -0.51610751104366     -3.33714141387948
  H   8.88939143932516      0.58488257802341     -2.65300978506784
  H   9.43884903984408      1.07861664187633     -0.16438142630573
  H   8.37491187542686     -1.77627244414739     -0.37758857733580
