21
Coordinates from ORCA-job 18013optt
  Br  2.20644147413787     -2.39582042004684     -3.15386276290277
  C   3.14290445881379     -1.16921972061455     -2.06423464970199
  C   2.98768621912428     -1.17890304673865     -0.66959780823872
  O   2.05363449186224     -1.94884361777281     -0.10446724341417
  C   1.72016297137587     -1.79062286439155      1.25735741027990
  N   1.86642952098246     -0.70406582559032      1.99884452628864
  C   2.00866624807649      0.50418786774219      1.45645787018769
  O   1.45942151069159      1.04581750627994      0.52292385037950
  O   2.92014969015350      1.28754263832727      2.24051565144780
  C   3.96272764474068      1.91426683777993      1.68532038568403
  C   4.65539418242222      1.69838885949397      0.54753152373537
  C   4.35224350771467      0.65461579114399     -0.42454524445717
  C   4.55137244265077      0.75908778952460     -1.79759428031265
  C   3.96961897090598     -0.20951854583105     -2.61401478320543
  N   3.71658056039248     -0.39915168231565      0.08914332357967
  C   1.28901349015755     -3.01224197187621      1.79958117611269
  N   0.91964936087098     -4.02029432944985      2.23931994361473
  H   4.28448624153681      2.73269309434599      2.32241303221935
  H   5.43245125432102      2.41837889762164      0.32418798367136
  H   5.08679830926615      1.59580131469769     -2.22528331757875
  H   4.10016744980253     -0.17809857232972     -3.68799658738907
