22
Coordinates from ORCA-job 18015optt
  Br  1.56287640164942     -0.64096663187255     -2.54023595973330
  C   2.60589601442470      0.07774526235399     -1.12293841024178
  C   3.21385265763349      1.26165968889890     -1.21072162865065
  O   2.98872174437091      2.12242240904829     -2.27084038729890
  C   2.04510918879191      3.04955072638871     -2.05110683601082
  N   1.13329922383948      3.10047284269074     -1.18638192771606
  C   0.75695558708194      2.15448158886051     -0.24164716042008
  O   -0.07666246953720      1.30932091978333     -0.41225907158776
  O   1.30749684045177      2.43181646633670      0.96502558816254
  C   1.03623530369905      1.56916340949982      2.02496705930560
  N   0.23571082093096      1.88501178741406      2.95365152819819
  N   1.73571842449869      0.40025368596368      1.99699219483933
  C   2.92340095625938      0.16250789507727      1.21559776251595
  N   2.69242502112213     -0.65583192031923      0.03508391563212
  N   3.80094740613100      1.17529218828851      1.11695119557043
  C   4.05406968542361      1.74715990170522     -0.07731351261083
  N   4.87274767340583      2.71848625337413     -0.33368819914660
  H   2.13383632071386      3.84623638334521     -2.78306797716038
  H   -0.21553715026238      2.76555999863919      2.73006310920494
  H   1.55235230699865     -0.17614519301985      2.80271075136414
  H   1.99552407168825     -1.37715123457763      0.13189695483521
  H   5.33002397068451      2.96595357212096      0.54326101094870
