19
Coordinates from ORCA-job 18027optt
  Br  1.10857609074103      0.60708286250521     -0.30559042443517
  C   2.94789143362282      0.33397017888357     -0.07797704030430
  C   3.82751334633601      1.35708405070108     -0.07543932140530
  O   3.54297562877853      2.67431930220877     -0.27623725635767
  C   4.73999174978453      3.30957428165853     -0.15586588437991
  N   5.72175408520482      2.53620184413833      0.08679244378288
  N   5.17191101166661      1.28726002170406      0.14099668705954
  C   5.90378522969501      0.08691333662735      0.24785533271809
  C   7.28200276619139      0.18476874237837      0.40347324129463
  C   8.48684069304588      0.24482395484120      0.52303871638135
  C   5.18496983770031     -1.12519588774588      0.02773678759091
  C   5.80843699477267     -2.31549738878893     -0.35578796664865
  C   6.37045124535194     -3.33476159565128     -0.68450345624441
  S   3.51674183233652     -1.22838016557965      0.49392050625481
  O   2.83879763196196     -2.26691649564493     -0.24072294367095
  O   3.34659602630976     -1.23237492407660      1.93177259237128
  H   4.76459608675404      4.37820406096718     -0.26465132516264
  H   9.54145991312229      0.29385873916539      0.63356272938209
  H   6.85670839662383     -4.23193491829177     -0.97637341822660
