25
Coordinates from ORCA-job 18026optt
  Br  1.02482536970136     -0.47023064455894      0.87102078467010
  C   2.82101188472684     -0.23241270996060      0.36286021134822
  C   3.57161874089384     -1.32001639767156      0.01308289517730
  O   3.23614674864849     -2.59982907032004     -0.02679077874594
  C   4.37687177601615     -3.27930986988737     -0.63177843944010
  N   5.45200894417853     -2.43304852214540     -0.60613589262547
  N   4.87129607823324     -1.20462002792507     -0.36100492386646
  C   5.47383275427742      0.00133290028013     -0.39901700062727
  C   4.78468745381719      1.12391476293150     -0.06008178441981
  C   3.38879520561842      1.10080602447012      0.34863648416202
  O   2.75812487851593      2.12128891912092      0.64677205801342
  C   4.53260391175543     -4.66487032683323     -0.09747949396842
  C   3.28836329568736     -5.54522952848383     -0.30890813455314
  N   3.86422339006824     -6.87574717200056     -0.43211061467021
  C   5.18182446494229     -6.88970120889477     -0.77007710551319
  O   5.83230504496382     -7.88317488429081     -1.02591290528314
  C   5.65072275301830     -5.44616167277775     -0.78896941095788
  H   6.50965474519360     -0.01737693882169     -0.70525785735417
  H   5.27083502957748      2.08816084655668     -0.09702863982574
  H   4.74300358592039     -4.63742688123815      0.98410389705860
  H   2.76466299845618     -5.24345418609909     -1.22064778980046
  H   2.59641680498325     -5.48658404215060      0.53079208511002
  H   3.32068602947280     -7.71922142805278     -0.50986405750920
  H   5.73918211674767     -5.13674513352847     -1.83455429488440
  H   6.62629599458565     -5.33934280771855     -0.32164929149467
