22
Coordinates from ORCA-job 18025optt
  Br  1.30965775123919     -0.28045825376832      0.40610000203076
  C   3.18513021544988     -0.17776721698909      0.22479001522974
  C   3.79656829355427      1.01727567489852      0.12939427422161
  O   3.30465381237235      2.29394456898257      0.11768420779007
  C   4.42458111538191      3.06576688604939     -0.02761906920581
  N   5.52027862675073      2.43006952274479     -0.10924844389456
  N   5.16639326419427      1.11515573093861     -0.00305129947726
  C   6.06747755014198      0.01444280070367     -0.15056678400126
  N   7.25750580797232      0.41479063236747     -0.47946932452430
  C   8.40626591434728     -0.29970417363808     -0.62942288826002
  O   9.38585283729856      0.20607865191002     -1.17550344674467
  C   8.54362744211214     -1.66694347623895     -0.10630109420516
  C   7.58565660069299     -2.56574853103105      0.17420636037418
  C   6.13097265475296     -2.50773056261074      0.11263471535439
  N   5.42902044848375     -3.60624984233958      0.20827746853016
  C   5.41141049457629     -1.23924138771751      0.04333993624504
  C   4.00302198747539     -1.32230301253822      0.19964520173070
  H   4.29826013947886      4.13322921827940     -0.06002088699467
  H   9.57737255759782     -1.98501805432839     -0.03031493315653
  H   7.94218323823821     -3.55036531923882      0.47022623352142
  H   6.05735661170373     -4.40159179921487      0.29207593073889
  H   3.57175263618501     -2.30363205722081      0.31214382469728
