20
Coordinates from ORCA-job 18029optt
  Br  0.91374753593014     -0.25348172739514     -0.26176516721001
  C   2.78541357200241     -0.08630497959914     -0.08543225547170
  C   3.37753889049695      1.14746701916662      0.02609611176680
  O   2.87251749532718      2.37477869665356      0.04856509412817
  C   3.96928837497914      3.22489060731265      0.19066291520185
  N   5.09571509983596      2.56011472048960      0.24924396141453
  N   4.71035418737304      1.24983298830588      0.14600675592362
  C   5.60437899322116      0.16704808723648      0.15829287746875
  N   6.86678107260592      0.28056510154694      0.25854399644779
  C   4.85978716129920     -1.09177316203305      0.03952924878397
  N   3.55522708317654     -1.16728353082317     -0.07278472849934
  C   5.61562794233850     -2.30513168812031      0.04369643098356
  C   6.26169283086924     -3.31612465085941      0.04771147751617
  C   3.68306800001963      4.63500158890190      0.24380604054943
  O   2.49682287658044      5.05156121254648      0.13254573200556
  C   4.79164025629548      5.57025237429637      0.43562685205297
  O   5.97513968739337      5.31407755038578      0.56414915339555
  H   7.12209468001929      1.26452152363191      0.32827786323125
  H   6.83845800691570     -4.20849185857675      0.05179597367956
  H   4.42270625332067      6.61548012693282      0.45843166663153
