19
Coordinates from ORCA-job 18039optt
  Br  1.09384771936175     -0.09663814821903      0.04008367581962
  C   2.97076912410305     -0.18603993369007      0.06389713831248
  C   3.66842786169358     -1.34067679561938      0.07245431682000
  O   2.99065224538847     -2.54182749859977      0.06957228263028
  C   3.61107795404323     -3.74823636886925      0.07544513408131
  N   2.96949158187148     -4.82923805616206      0.07763957406652
  N   4.99745749519761     -3.68583289790190      0.07858890546419
  C   5.89217944185363     -4.75835872736273      0.07908781361841
  O   5.68636470817475     -5.93341332809130      0.07504220000924
  O   7.11132923374122     -4.18896256669635      0.08511440084310
  N   7.03398752919985     -2.77084157337648      0.08801455403786
  C   5.75583136876030     -2.50352650986613      0.08384490001148
  C   5.09084633048683     -1.25623063828453      0.08312983595917
  N   5.76803283333667     -0.08604150535894      0.08901810034150
  C   5.08704549168196      1.07242544302135      0.08523032668603
  O   5.56416773014003      2.19851537502208      0.09326172477013
  N   3.65995544002405      1.00010541182390      0.06948229586304
  H   1.97446717603917     -4.62084284817951      0.07439611835195
  H   3.17406873490234      1.88066116641012      0.06769670231368
