23
Coordinates from ORCA-job 18035optt
  Br  1.00444270261929      0.22046122375768      0.11036542360265
  C   2.89554994669969      0.24500028062886     -0.00697185892887
  C   3.62673801231698      1.37500206452076      0.38999100478533
  O   3.32011456230587      2.74295118646301      0.26723084569165
  C   4.49238587653215      3.44832467357097      0.29186411541552
  N   4.61730706198673      4.70558813886514      0.17164534873790
  N   5.52755193404651      2.56162904975214      0.48953974363342
  C   6.91368356602364      2.72495259647784      0.11817777489470
  C   7.68691269261549      1.51252087714548      0.65014776793406
  C   7.17585662641818      0.15629345088572      0.09110448778606
  C   7.68498073630490     -0.03435426464207     -1.28341978406380
  N   8.11440377218540     -0.14408555954437     -2.34188281161606
  C   5.68555981284097      0.14368037980087      0.16323385420083
  O   4.98582112046108     -1.00759655502455     -0.09604479795750
  C   3.55799954559752     -1.00362300359701     -0.17105417948285
  O   3.06375190766423     -2.09368521850076     -0.36049374883858
  C   5.00423581158514      1.27575439684195      0.42454449312881
  H   3.70546251804502      5.12767000006173      0.02984010690041
  H   7.29843011709580      3.64938125403682      0.54676627077751
  H   7.01125385498783      2.78605374777109     -0.97289778314458
  H   7.57707802972163      1.47852788652980      1.73537514745148
  H   8.74506062629389      1.62652927864478      0.41607952000322
  H   7.61341916565185     -0.65297588444596      0.68985905908866
