23
Coordinates from ORCA-job 18036optt
  Br  0.99280305270598      0.15354409624260     -0.32937717684356
  C   2.83868446798061      0.08907872517680     -0.00048369268018
  C   3.64649155952085      1.20399222627866     -0.14268940972609
  O   3.26921488653500      2.52150583445522     -0.32327005598316
  C   4.39665837622674      3.30526125875471     -0.24706185087182
  N   4.44898937886450      4.56359947818430     -0.43323631933610
  N   5.44654996706015      2.48927737188525      0.04352439299497
  C   6.81876160477545      2.89251247152700      0.17918159860951
  C   7.56279300181231      1.92488427976227      1.11031772975180
  C   7.90845894881973      0.59074369942772      0.47419228694889
  O   9.03178425775591      0.32101861889237      0.13058632981360
  O   6.93391989249930     -0.30485741369354      0.29675329715162
  C   5.60054806167356      0.02082343555421      0.58918445037713
  O   4.85574781244714     -1.13841897398188      0.50895597234595
  C   3.47702656289341     -1.16429415569406      0.27302729141635
  N   2.89248604315661     -2.30015788049511      0.30656982395496
  C   5.00312585527111      1.16247651086389      0.06315262594547
  H   3.51938916157003      4.92179515342474     -0.62262130829244
  H   6.82450314479447      3.89979756799831      0.59496970670883
  H   7.31957053056643      2.93249557765114     -0.79504841065966
  H   6.95450763220903      1.75289589541022      2.00137522605509
  H   8.51509147151829      2.36878163373407      1.39204339909042
  H   3.57489432934326     -3.01575541135893      0.54195409322842
