24
Coordinates from ORCA-job 18048optt
  Br  3.62646183023143      0.53413577810517      2.65658102317483
  C   3.38978846685726     -0.08417977560799     -0.36982025120664
  C   3.36398233751059      1.30963694210567      0.08618403589465
  O   2.47619525849741     -0.80758714885045     -0.66469795082350
  C   4.87972314615737     -0.40428874040274     -0.55387814372989
  N   5.32767597474221     -1.55109827303222     -0.83376286015867
  N   5.55789159016931      0.79474750293679     -0.38222349048691
  C   4.74044829308037      1.83093134742008      0.05804264038991
  N   5.17646638634957      2.98815212643959      0.33396600636864
  C   4.40279625294432      3.89781266134950      1.06780846566968
  C   3.42337001723853      4.74308952011749      0.74172813518674
  C   2.72422258758405      5.02445553781093     -0.53414818586819
  C   1.52946778554900      4.60085840112907     -0.95438215805956
  C   0.58819489527737      3.59951407998360     -0.34655680338463
  O   -0.60631801764626      3.82441662149466     -0.30994944994270
  C   1.16384713134989      2.31732185811326      0.12641187369332
  N   2.41280531830973      2.20583823535235     -0.07356707006948
  H   6.55208442966309      0.83913528059402     -0.22028547299662
  H   4.72996835375324      3.92787082612115      2.10487685771362
  H   3.08585073114515      5.37051115909959      1.56272619857380
  H   3.19276688883143      5.79030823616327     -1.15144406790020
  H   1.11240427386853      5.05903924173739     -1.84582137734433
  H   0.52849968792463      1.59648719073824      0.64160783841283
  H   6.34440638061168     -1.54110860891849     -0.91739579310671
