26
Coordinates from ORCA-job 18047optt
  Br  2.92808521981812      2.02900636417525     -2.49592318808169
  C   3.89520153632780      2.03429929791083     -0.85543689984600
  C   3.31136766397280      1.56941135250434      0.26218304310013
  O   3.99865046979524      1.51161864303992      1.42371849976396
  C   5.44998913178006      1.58984919840223      1.33411334333440
  N   6.08399940417692      1.01389388976396      2.28629432620858
  N   5.95677329662115      2.30987363182263      0.34054525790809
  C   5.19881929285892      2.60466785935254     -0.74956717124900
  C   5.53492112620412      3.84871838171940     -1.48027260392644
  O   5.04565747299024      5.04771705340023     -0.79862199748421
  C   3.75414356124627      5.44051162478036     -1.07277265177664
  O   2.72944053261824      4.63813731839231     -0.52483436100963
  C   2.79979490370472      4.45099508406360      0.86820645337557
  C   1.63518080455969      3.57500572881793      1.31517324408332
  O   1.05672532173726      3.81637617779963      2.34458089919549
  C   1.15322901151199      2.42458900166432      0.41950931063327
  O   1.99839375911073      1.27102421686043      0.43691201929396
  H   5.41269236604519      0.58267746475333      2.91354068048170
  H   5.13764065085046      3.86101199768302     -2.49936495755828
  H   6.61514660046050      3.98356010196233     -1.49343599099001
  H   3.54551627961914      5.42893824198831     -2.14871047805785
  H   3.66107924190820      6.45708654649700     -0.67101793214756
  H   2.71461980075086      5.40365869848753      1.40351235646870
  H   3.74325495644830      3.97330654222479      1.15936094194845
  H   1.04730008670879      2.79515331129448     -0.60268966427997
  H   0.19337750817422      2.09491227063923      0.81099752061164
