25
Coordinates from ORCA-job 18043optt
  Br  0.75748573274088     -0.43447890584749     -0.05896521187526
  C   1.90158349059480      1.07717144911543      0.37238314221159
  C   2.78195292676648      1.58938343706595     -0.61535456980852
  O   3.79222483702870      2.22668668747467     -0.46893456135782
  C   4.00220197449410      1.52081334218458      2.32923091694372
  N   5.18711520552981      1.20737912759876      2.27168559507046
  N   2.83416700919365      1.78306174633030      2.53609233232300
  C   1.73220863289138      1.58015678271912      1.69497477487213
  C   0.42380574761968      1.83239503305003      2.27707300001519
  C   -0.59390104054916      2.45761104249938      1.62326825654493
  C   -0.19880978807484      3.21184570762394      0.41922038668501
  C   -0.30088036903253      2.93720284329807     -0.88763160481693
  C   -1.15594148040663      1.94225056424342     -1.64719265503545
  C   -0.12405884903410      1.30564730134915     -2.61716770095370
  C   1.13500002058031      2.00221596217099     -2.13396638145825
  O   2.32269614393691      1.38595742745430     -2.02677793670223
  N   0.93955534969941      3.12749228196689     -1.55524584851687
  H   5.75568858411391      1.83949162224028      1.71411921319324
  H   0.27122336682183      1.49855518029991      3.30175610274746
  H   -1.58454432908332      2.49783815045924      2.06181239697755
  H   0.68364375233843      3.81636620519685      0.61715417317450
  H   -1.95852355802524      2.44801729467617     -2.18495598172921
  H   -1.59482718212082      1.21055223338345     -0.96903246297862
  H   -0.31466280424990      1.59309189493257     -3.65282038352259
  H   -0.06540337377382      0.22429558851390     -2.55672499200331
