24
Coordinates from ORCA-job 18059optt
  Br  1.00310754446270      0.05575278195833      0.28555073484575
  C   2.87163108508490      0.08490886737901      0.00658208380070
  C   3.59631260708164      1.22111612963251     -0.03497662712147
  O   3.16506400246821      2.49030868726592      0.01334017495273
  C   4.35814366963555      3.31703533310344     -0.10156110053851
  N   4.22517650493801      4.58967790104594     -0.09879916951701
  N   5.45512349181301      2.55205573466056     -0.19649747630509
  C   5.02688462133317      1.26901234514789     -0.14343788216782
  C   5.63034144914562      0.00983244443364     -0.16853823892758
  C   4.90511312597446     -1.14807557823611     -0.13328413523043
  C   5.83131668665218     -2.31124297223438      0.00161331967055
  C   7.14240283214902     -1.62921801403298     -0.42865821415821
  C   7.39424876408363     -1.77173423358074     -1.93901538197138
  C   7.70634172138607     -3.14361055411533     -2.32364927117272
  N   7.95711385640145     -4.22859749028098     -2.59880164801276
  O   6.98803957509591     -0.23624145648946     -0.17315692742561
  N   3.50382504398644     -1.18713348588421      0.03191394604004
  H   3.24018886192109      4.81838870489558     -0.01235003503427
  H   5.59852828438605     -3.16227840724750     -0.64770039145402
  H   5.88865450556780     -2.69345744586167      1.02997384472347
  H   8.01350481510227     -1.97652089431282      0.12569828197754
  H   8.22144738528411     -1.12356343966412     -2.22837468279984
  H   6.49854380884304     -1.43996651723644     -2.46969449007807
  H   3.03894575720354     -1.85244844034608     -0.58217671409599
