22
Coordinates from ORCA-job 18056optt
  Br  1.41847379298534      0.65766505326378      2.50502520729609
  C   2.60615357149319      0.39458986864060      1.05842632423541
  C   3.31304887077008      1.48092911933498      0.48468851541369
  O   4.38227001387345      1.13617929209371     -0.25815397793889
  C   4.51709292035919     -0.23157046084117     -0.60553437420226
  N   5.67398845974508     -0.68992764969637     -0.83041686142035
  N   3.34066540064273     -0.89839932541689     -0.78095369318147
  C   2.40231920248615     -0.59291712630875      0.06732548278641
  O   1.21322054473140     -1.21708850284600     -0.15288022983932
  C   -0.10084257745687     -0.79461149901233      0.08081982778163
  N   -0.70024824994818      0.33534419475796      0.02181019737970
  C   -0.20901058682132      1.56037167334323     -0.26721375599675
  C   1.06263670952716      1.87873554916910     -0.79080178203387
  C   1.61762752876083      2.74893940322638      0.12794635752065
  O   0.67427284394045      3.42152817565075      0.83972648626413
  C   -0.59745453797175      2.78395025686594      0.53247013184852
  N   2.92154143538547      2.74812819908856      0.47957641704449
  H   6.35734991215749      0.04590693876455     -0.67227799731263
  H   -0.67796940784811     -1.68342647662936      0.29669384286729
  H   1.65499467188733      1.24716100377863     -1.43325473778440
  H   -1.20284164776400      3.50422230554767     -0.02666395787470
  H   -1.08228887093516      2.53629000722498      1.47564257714661
