22
Coordinates from ORCA-job 18055optt
  Br  0.03220821490347      0.15885293237299      0.29214523284186
  C   1.69587377716633      0.97065407387322      0.62987526519164
  C   2.77038534750720      0.77943608348522     -0.41402603690392
  O   3.73619387252258      0.08432198393384     -0.26850178169961
  C   3.98792019062822      2.81320313043363      1.09373193017822
  N   4.93189199420290      3.24298068664172      0.45684461515581
  N   3.09941188754313      2.46233602416472      1.84083590013062
  C   1.82961820134929      1.97182907856667      1.51031966333813
  O   0.88054550833189      2.54588712879493      2.26009550704568
  C   -0.24203603808345      3.21767279127831      1.75843887065392
  C   -0.50406810156117      3.73507658501123      0.51992749150877
  C   0.27227664186895      3.71795691110797     -0.65635496055367
  N   1.58022832268983      3.31950612502211     -0.61017639349193
  C   1.62417053186954      2.44267455377047     -1.62556602551169
  O   2.63203965621560      1.47788777039586     -1.56770215881010
  N   0.71055223385895      2.37949780068583     -2.53206388231085
  C   -0.23949185184225      3.40883869641849     -2.05788210340972
  H   5.53566804598383      2.53951146741397      0.04273872024512
  H   -0.95594677665365      3.30698346885872      2.56199090688162
  H   -1.52071230226457      4.11136950839106      0.44182548522925
  H   -1.25959596340770      3.01775296986655     -2.06353887341507
  H   -0.21213339282894      4.27977022951244     -2.73095737229409
