22
Coordinates from ORCA-job 18064optt
  Br  0.93818948938934     -0.29115258418498     -0.30321321510785
  C   2.79449494494135     -0.16428395495898     -0.06181757533515
  C   3.60521667934037     -1.26190036506747     -0.00950731832448
  O   3.15640535592711     -2.57068573224084      0.06848577886156
  C   4.24166591073113     -3.38670177092307      0.23888860382809
  N   4.21088865016315     -4.64244666335676      0.40563896031425
  N   5.35713664692202     -2.59441557623002      0.18742907015606
  C   4.98882400178177     -1.25121989971592      0.04165946142509
  C   5.80742950220476     -0.09463715756479      0.00141509141034
  C   7.24638653930702     -0.13244550307677     -0.11210338496029
  N   8.02641361374741     -1.12577961709303     -0.39227733612285
  N   7.85156984763817      1.08901026554091      0.11305613919500
  C   7.22099891379291      2.33082427566249      0.23286674722333
  N   7.87587770560812      3.42547163146388      0.39213798848508
  N   5.85017187677859      2.33552453065288      0.16292699537939
  C   5.23218722942015      1.19080578784960      0.07494497380943
  S   3.46246109248372      1.44944780555225      0.03995905314819
  H   3.24910432500227     -4.96472974337985      0.41820889205320
  H   6.24186803658690     -2.92151854982209      0.53498527499032
  H   7.48808995205786     -1.93994679450580     -0.65869364817850
  H   8.85518118061714      1.07326824702400      0.01546956453116
  H   8.87443850555871      3.23451136837435      0.42653988321865
