19
Coordinates from ORCA-job 18068optt
  Br  0.77425118819903      0.15685672644291     -0.14625136965632
  C   2.65548182320979      0.15051045928317     -0.07679524801106
  C   3.37255061938478      1.26896880473496      0.02985358231145
  O   2.89764976540653      2.52016100807811      0.11392815339580
  C   4.05211048571965      3.37934155836189      0.10429984712366
  N   3.89796402761860      4.63803739998639      0.16374023283671
  N   5.18483929964924      2.64665521979297      0.02768054505211
  C   4.82648156789260      1.35979385689910     -0.00239671709379
  C   5.61833036763263      0.21814248615031     -0.07456553635124
  Br  7.47369398228478      0.54561521916738     -0.27685950366578
  C   5.11948755010994     -1.09003005254307     -0.05355477525434
  S   3.38170665266348     -1.42855248450260     -0.20112006879936
  C   5.85229755686618     -2.32131383893044      0.02639425492779
  C   5.38428695810353     -3.57636170228819     -0.34187659782746
  S   6.54955881774109     -4.73051359229276      0.06018537360696
  N   7.60027617670545     -3.55653332277459      0.67768194577716
  N   7.11288111512928     -2.39885576892858      0.59611041901835
  H   2.90686905025142      4.85281706469477      0.21834347125936
  H   4.46428299543193     -3.81773904133171     -0.84579800864998
