25
Coordinates from ORCA-job 18069optt
  Br  1.35165207482644      0.60031309187529     -1.54105582193983
  C   2.92840176823876      0.10027895887261     -0.64328250651120
  C   3.94162331475755      0.93907921358140     -0.41251206561278
  O   4.07941887623725      2.24284348535000     -0.70814606064542
  C   5.36648587236783      2.61520478198375     -0.17635234473075
  N   5.77731317223231      3.81075939532338     -0.31279671414138
  N   5.96363164996271      1.55718572515924      0.42196541498753
  C   5.13242476277649      0.51719265229438      0.29591452101332
  C   5.19795317947509     -0.80261867534710      0.72912453145710
  C   4.12002205455615     -1.65635096542984      0.49621648351505
  C   4.13424653384996     -3.11906720822705      0.75791966064313
  C   4.28378488221559     -3.63360923628639     -0.65188991796492
  O   3.30082330776176     -3.67024759017082     -1.41311219602813
  C   5.69350175821637     -3.79330589249385     -1.21496907306945
  C   6.55855377650757     -4.61610602460519     -0.37346340281382
  C   7.24863379363244     -5.29453600476842      0.33622172219662
  N   2.96953669152287     -1.19447397161307     -0.14790708689511
  H   5.07806704420350      4.34872476032822     -0.81529900190342
  H   6.06220101280222     -1.17250055162649      1.26429299434511
  H   3.19167939935234     -3.47412703305406      1.19036487398815
  H   4.97827643733810     -3.38663751359828      1.39220425142789
  H   6.16307839748339     -2.80961485719221     -1.35278398388480
  H   5.59135325765816     -4.24625112083759     -2.20160815543534
  H   7.85920296981833     -5.89401615980248      0.96621164170929
  H   2.50313401220668     -1.91211925971539     -0.70825776370686
