22
Coordinates from ORCA-job 18073optt
  Br  1.02528876645467      0.02643298235628     -0.10681791316311
  C   2.89986275373943     -0.00606298887829     -0.03881331029042
  C   3.66162951907519      1.15707662850842     -0.11485669094556
  O   3.17907932825722      2.44674748182291     -0.22415680776068
  C   4.24528210252357      3.30320623092108     -0.22482014439420
  N   4.18005976518144      4.56907447406478     -0.20942028790780
  N   5.39403909831095      2.54536906376041     -0.24401331812292
  C   5.03396183656883      1.18855659655285     -0.10292971376481
  C   5.78146620777513      0.01642265558106     -0.01859492382565
  N   4.99218043747682     -1.13387252933700      0.13211831035132
  C   3.59138288253919     -1.24577208127888      0.09341757968035
  O   3.09421416305145     -2.36891583758358      0.17670219607435
  C   7.18484025604290     -0.12328411040457     -0.03908775319812
  C   7.97269847657061     -1.24278221415806      0.16379353010464
  O   9.29137150493765     -0.92175958231546      0.00834873759542
  N   9.38642620452133      0.40983339752426     -0.29871019412664
  C   8.17747279124899      0.87186019464145     -0.32832241655895
  H   3.20881794202474      4.86097168132704     -0.17915878798012
  H   6.23008770145054      2.95109773031505      0.13964008737158
  H   5.44652647092692     -2.03331277686649      0.13623211285846
  H   7.76524872964143     -2.26522697283588      0.42399198238921
  H   8.03206306168095      1.90933997628260     -0.58854227438635
