21
Coordinates from ORCA-job 18076optt
  Br  1.05877472582662      0.27559341826759      0.06635648273111
  C   2.92949844670769      0.02228496679457      0.07339934942810
  C   3.76479862663343      1.13298370305279      0.07842602418052
  O   3.30568590031784      2.43588248877598      0.08018610951609
  C   4.38047261712182      3.28435072824286      0.08372657627999
  N   4.32402883501877      4.55287781529886      0.08607503534884
  N   5.50067104842484      2.50825388222522      0.08429769961994
  C   5.15132974961896      1.15544523680987      0.08127629370743
  C   5.97293590081664      0.04522626668218      0.08026388785193
  S   5.21554673624445     -1.54668177379373      0.07891743860674
  C   3.41916138585208     -1.30674531336708      0.07269522214019
  N   2.68882811866497     -2.36607690676460      0.06859256855412
  C   7.38740006976540      0.06367293455576      0.08075509876675
  C   8.32548492425850     -0.93703586952694      0.07979878867947
  O   9.54886765839610     -0.36002858559535      0.08060533645448
  N   9.35874060733644      0.99621022760670      0.08223671330541
  N   8.13363393301786      1.24286631329028      0.08234145414172
  H   3.35394998154100      4.84962443675971      0.08482524848713
  H   6.44151470378652      2.86313754854219      0.08607912781152
  H   3.25468967069118     -3.21041915323372      0.06872608379516
  H   8.27698635995884     -2.00942236462313      0.07841946059335
