21
Coordinates from ORCA-job 18071optt
  Br  1.00677095773738      0.07887137064494      0.19386991664770
  C   2.90142539101709      0.01587293373545      0.17996171498659
  C   3.61173030515731      1.19828664241923      0.25811113258019
  O   2.95301132385974      2.42043539765623      0.35212502749719
  C   3.68416626468573      3.47103258469215     -0.11014850647787
  N   4.94220480618935      3.54727468776801     -0.14754082617771
  N   5.63437826823621      2.45858317325799      0.36424132278716
  C   5.00650557655888      1.20204898798601      0.24583120165536
  C   5.70651655762019      0.00129672017251      0.14322124826936
  C   7.13391329904477      0.09564103639077      0.10447939654196
  N   8.25805444463330      0.33923533853473      0.07203787712792
  C   4.99414601646556     -1.20410917185336      0.08317238269403
  C   3.56653199578573     -1.19997207690751      0.10695821062461
  C   3.11491919973755     -2.56117606788518      0.03177679937407
  C   4.21685018476609     -3.37683886887006     -0.03845566119403
  C   5.44355574671603     -2.59035408952847     -0.01345576156058
  O   6.62473397992291     -2.98892032469237     -0.06423513592255
  H   3.07618272128240      4.30179087181293     -0.43911954440624
  H   6.59424980769280      2.47048316035065      0.04752502462257
  H   2.07727561632200     -2.85909378847923      0.02995797898850
  H   4.21587753656894     -4.45538851720540     -0.10631379865824
