21
Coordinates from ORCA-job 18077optt
  Br  1.05966795674247     -0.19232785627485      0.45038657992060
  C   2.85764458476795     -0.08691972788939     -0.11372880563198
  C   3.57198372579937      1.10497035126031     -0.06007745264927
  O   3.15851921645725      2.37441227860237      0.19081480306040
  C   4.32795209835046      3.18506717336582      0.13724104014925
  N   4.26394446828744      4.43855813248802      0.37520613582335
  N   5.41538700692251      2.42732988399294     -0.17814743140818
  C   4.93458760630592      1.19001042040685     -0.28114743720109
  N   5.65374135391689      0.05455164897596     -0.67636006692734
  C   7.02017979344062     -0.16238426997249     -0.27559477181686
  C   8.02651740406010      0.56594582696464     -1.05196877808365
  N   8.89264501921385      1.05610227201918     -1.61852123010587
  C   7.13779102277990     -1.68015625027163     -0.48492331888285
  N   8.14839402129588     -2.41775369740065     -0.55431220949637
  O   5.88565608612706     -2.18126098164628     -0.55701238481402
  C   4.96714999302373     -1.15748787867949     -0.47015887738033
  C   3.64655695573272     -1.27466759762543     -0.24665586038039
  H   3.30043081762292      4.68626438871016      0.57856948776599
  H   7.18504640869084      0.07216386959673      0.79147555265843
  H   8.99705990924627     -1.85919525302388     -0.50657377359709
  H   3.21014455121568     -2.25722273359890     -0.14651120100271
