25
Coordinates from ORCA-job 18070optt
  Br  0.70758585272883      0.44073771760247     -0.70220667211739
  C   3.14294114204053      0.05667284454357      0.04371077270572
  C   3.78162305367432     -1.12434254330701     -0.07366652708861
  O   3.27341064451023     -2.37029487007060     -0.25086929655575
  C   4.38180565096567     -3.23942823817777     -0.27587892838503
  N   4.23760214238767     -4.49326022295427     -0.42035298116867
  N   5.55566894751563     -2.53727534067524     -0.12231183642584
  C   5.19296334119935     -1.27522154772519     -0.00184218862827
  C   5.95027480231048     -0.09555810196563      0.19102020103563
  C   5.29911769659214      1.09974532691351      0.30051950001451
  C   6.08317189674742      2.36595920773527      0.50282083950590
  C   6.54996347153228      3.04732896522556     -0.77430953844247
  O   6.81481507179221      2.48014760236758     -1.79236875518362
  N   3.93001684343169      1.16984337903701      0.22357844569216
  C   3.22552112278600      2.43804013424832      0.44372820476495
  C   3.53485769358054      3.45935844473673     -0.55530169834884
  C   3.78654224040735      4.29878797778944     -1.37204425648046
  H   3.24739026748496     -4.70290956200621     -0.51019488730111
  H   7.02914238875871     -0.12693537402352      0.24622807281305
  H   7.00279343270640      2.11615270138352      1.04186288599187
  H   5.55929529200407      3.10110989313758      1.11259448911265
  H   6.69630630800761      4.14141366808216     -0.67900142339634
  H   3.44575300861091      2.81919992056496      1.44410963358400
  H   2.16215437241569      2.20097915511420      0.39149971105153
  H   3.99228331580903      5.02374886242351     -2.12232376674955
