19
Coordinates from ORCA-job 18075optt
  Br  8.69493918998254      0.05256688384510     -0.33090364945160
  C   6.81749858499684      0.03546413034918     -0.49215008553813
  C   6.03274787643907     -0.04741576468652      0.61310809242982
  O   6.41495882012007     -0.13494995968172      1.90088032207805
  C   5.21128800358008     -0.17675014779852      2.64892261703757
  N   5.22788219061325     -0.24697336214888      3.91641446294876
  N   4.12608457855142     -0.12746236103852      1.81685700336269
  C   4.61127779440085     -0.05010659886637      0.58760397307419
  C   3.89445246627830      0.03285277702844     -0.68067773941554
  O   2.67043264391987      0.04416772122362     -0.77471654294490
  C   4.78341820751992      0.06911437634808     -1.85362819413355
  C   6.17386053972752      0.05843673096444     -1.76613405963902
  N   7.02769990809445      0.25623333544134     -2.86068555134373
  N   6.80412976180069     -0.17970140672875     -3.98954714479440
  N   5.62627419461169     -0.96041446415856     -4.14016886703118
  N   4.46207291968305     -0.07464815794213     -4.14395374472835
  N   4.11094006176655      0.32899302059228     -3.04694494775971
  H   6.19190471376842     -0.26372241069856      4.23906048173739
  H   5.67213754414524     -1.26268434204393     -5.10633642588834
