18
Coordinates from ORCA-job 18088optt
  Br  1.18716144161013      0.08644236984546      1.20911201898645
  C   2.72011411083805     -0.04797202438104      0.01554513059279
  C   3.45460004838336     -1.21529751524675      0.01557144229864
  O   3.03929639866559     -2.51043498043331     -0.03239677489057
  C   4.22337463534739     -3.28431496127353     -0.08244151656090
  N   4.18672338078520     -4.55334489331380     -0.14174574046135
  N   5.33351489863781     -2.47429702260224     -0.05061374980298
  C   4.83242801765052     -1.26593501205785      0.01919168295334
  O   5.59389134269499     -0.14048557298243      0.13667865313571
  C   4.95974647375477      1.04425207082403      0.20018842174175
  N   5.75088672277349      2.03349637813530      0.35792167972986
  O   5.16882517168456      3.29953846195143      0.41682811338127
  C   3.92704857324180      3.53914040307572     -0.04289207767185
  O   3.54214525581398      4.65905602539841     -0.16663665610239
  C   3.03483032163056      2.33535803744785     -0.32696850074295
  O   1.92337254621622      2.47999712937673     -0.74549750305225
  N   3.57809851446608      1.10744099571610      0.02498738231760
  H   3.21794214580546     -4.85963988948006     -0.14383200585215
