22
Coordinates from ORCA-job 18089optt
  Br  0.78047245067580      0.26769304870941     -0.42372495060846
  C   2.65043854558054      0.25164153097944     -0.16102249575793
  C   3.37553024554836      1.43499369209540     -0.08943171984009
  O   3.01871861400693      2.73323036533528     -0.23048153362360
  C   4.22267985540163      3.46876056896079     -0.05616261944867
  N   4.22749777564355      4.73952475266670     -0.13300103241082
  N   5.27106490965266      2.62425871262819      0.18389571609221
  C   4.73956546520718      1.41847697848302      0.15721805051712
  O   5.42636617322981      0.28774186185169      0.35556291448002
  N   4.72046476948369     -0.95165159352166      0.23038274062141
  C   3.41263035310566     -0.90628781850775     -0.00401255058408
  C   2.82249035239371     -2.29621736845403     -0.07285527797700
  C   2.76463291256651     -2.95938142928103      1.26572056766801
  C   1.85740952862979     -3.77863615931911      1.89085610359709
  N   2.34934072570318     -4.12446427882201      3.10893854370136
  N   3.50319895251211     -3.56388157970441      3.26901740533439
  N   3.76016400111466     -2.86767940414276      2.16561632111398
  H   3.28383408815015      5.06342769747619     -0.32442638955943
  H   3.45359522700508     -2.89235029324284     -0.73661960032995
  H   1.82230238963222     -2.26613087760913     -0.49777772395371
  H   0.89917177051148     -4.12449027716983      1.54364784132584
  H   4.59643089424521     -2.30657812941154      2.04665968964227
