21
Coordinates from ORCA-job 18092optt
  Br  0.92968799749319      0.16856182614821     -0.56584469901721
  C   2.72069623677905      0.10268750491498      0.02152894159107
  C   3.49360944706186      1.25369553544913     -0.07410442099241
  O   3.12039460439723      2.46659943368693     -0.55888431647976
  C   4.26526580178495      3.28820677138437     -0.46788147764097
  N   4.24556866807436      4.50005397210955     -0.85947655260722
  N   5.31001829924945      2.58841666938753      0.07288433435606
  C   4.83044917135804      1.37585132864436      0.29936621752239
  S   5.66871863405374      0.02293695288327      0.97805918321331
  N   4.54609868169393     -1.20537091893750      0.95179796326389
  C   3.29544038367208     -1.07398014005255      0.52430830845265
  N   2.46853848970778     -2.21288823013043      0.55027971276189
  C   2.95774392151150     -3.29924496270928      0.93339412975418
  O   2.15631705753251     -4.41502665479315      0.93255109804464
  C   2.81213279411400     -5.60961363244647      1.23654715805186
  C   3.06866927445636     -5.78640490298154      2.68145787676011
  N   3.27204362405623     -5.96327381874497      3.79451975371824
  H   3.31894874169589      4.72026521922046     -1.21246199621684
  H   3.98395120794030     -3.45328368753736      1.27114819779796
  H   3.76836922481797     -5.69546495509170      0.71150888083394
  H   2.16633773854947     -6.42372331040382      0.91030170683221
