26
Coordinates from ORCA-job 18107optt
  Br  0.64515323251275      0.90746235045837     -0.97156190419129
  C   2.91550353137327     -0.04801852268659     -0.31213721450813
  C   3.57642436174333     -1.22750830317830     -0.38600358426255
  O   2.87713151105967     -2.39347011082158     -0.70638053821054
  C   3.33809813091344     -3.59261676099934     -0.30340712694913
  N   2.65264052024140     -4.65731496906720     -0.40860462736436
  N   4.59726344701073     -3.60510734327213      0.25200456512269
  C   5.60189503170460     -2.64835598834679     -0.18192275480516
  C   4.97242700133845     -1.28774464950945     -0.18414142701815
  C   5.68252408064577     -0.14364306491812      0.05063827693633
  N   7.07475790335879     -0.10915635540650      0.25840353653948
  C   7.92883521732392     -0.56420012954315     -0.83563681854268
  C   8.77288065252855     -1.71650902671751     -0.48699894860548
  C   9.46533579370473     -2.65665839331529     -0.21683046399067
  C   5.00587509860650      1.12951411089545      0.15307365675406
  O   5.58646811578638      2.19205486357078      0.40729471435946
  N   3.64666608380612      1.05852927713737     -0.04498973558369
  H   1.72291198014029     -4.42338663820719     -0.74409663407136
  H   4.91076133936522     -4.54959051655372      0.41059030647404
  H   6.00457526010795     -2.89780031973194     -1.17396325864821
  H   6.43755427996806     -2.66080067282169      0.51967386838670
  H   7.30744691716223      0.83796399968145      0.53659555856282
  H   8.58548720004507      0.24692650102772     -1.16128381768269
  H   7.31699869859551     -0.83287913906224     -1.70190206423111
  H   10.07265160127872     -3.49167603803564      0.03600785741228
  H   3.14273300967824      1.93898583942328     -0.01442142188268
