26
Coordinates from ORCA-job 18103optt
  Br  1.21310000484758     -0.19027130105613      0.54901579420766
  C   3.09574197132763     -0.03074712671614      0.26956534949979
  C   3.83661574020232     -1.22370041573290      0.17271035486351
  O   3.18336719690651     -2.44466725198467      0.31976277165748
  C   3.76743220805302     -3.58815741629896     -0.07816801234532
  N   3.16588399755425     -4.71116735586862     -0.02941819513014
  N   5.04746580785886     -3.48036625143028     -0.56580657784002
  C   5.94654851122251     -2.46736006421994     -0.02149173131823
  C   5.22388566111159     -1.15364600425658      0.01343193733058
  C   5.85542958038140      0.05712164753497     -0.08049733697395
  C   5.11666343157617      1.28080964813437     -0.00166838174396
  C   3.69346393705637      1.20049531542508      0.19973885774433
  C   2.97249078457177      2.50669815297257      0.33878335728109
  C   3.71341134694614      3.55700699682431     -0.47152315523664
  O   5.05527865683318      3.69128105243217     -0.05959741515393
  C   5.81693258101484      2.52048802234411     -0.05833371175563
  O   7.03641635958653      2.66305094635617     -0.09203639608649
  H   2.20648923600844     -4.56215783623800      0.26878775366595
  H   5.44059296398741     -4.39644930469530     -0.71684377123414
  H   6.82186688394081     -2.39789408538430     -0.66671136667489
  H   6.28905589098317     -2.74423226997718      0.98464707471906
  H   6.92843354858568      0.11466061142907     -0.21305287807133
  H   2.95646354687064      2.81884486154615      1.38963088895420
  H   1.93817522397051      2.43296181042268      0.00146877445473
  H   3.25754999998495      4.54127400938554     -0.35246422831819
  H   3.68024492861765      3.28412360905182     -1.53392975649551
