25
Coordinates from ORCA-job 18108optt
  Br  0.56878623767863      0.05761749497563     -1.05470607067711
  C   1.85164577158961      1.49501341170611     -0.89223444447049
  C   2.67854180949336      1.58608966273675      0.22613727298823
  O   2.18238982065307      1.26324232700158      1.50535596302991
  C   1.04512243270376      1.96611086280021      1.86600438851968
  N   0.00476348748660      1.39632134186944      2.30081066239006
  N   1.17268597953281      3.34358567031867      1.80610452543621
  C   0.02317939516060      4.15837616285796      1.38854848458439
  C   -0.14373706003567      4.05351112520046     -0.10523015473491
  C   -1.10262173492510      3.61065861728503     -0.96091924500996
  C   -0.41427206296984      3.18590727169317     -2.15149179550233
  C   0.92058994129099      3.35766612411408     -1.93025980056506
  O   1.04317836641269      4.05701346721552     -0.73692984635381
  C   2.09804938551831      2.42949841547711     -1.96584667389516
  C   3.41563297313591      2.89773264616104     -2.03159451175903
  N   4.35382094534972      2.66980350988832     -1.11693189544932
  C   3.91590424223454      2.15957921653893      0.07237209485201
  H   0.11324852737627      0.39223760494772      2.19344300390420
  H   2.01459635609331      3.61084714181604      1.31073822337858
  H   0.21122839607247      5.18240391058326      1.71703647772099
  H   -0.86803084068871      3.78748863756250      1.88920271599071
  H   -2.14592127511600      3.46805485217825     -0.73119381941689
  H   -0.83992741584255      2.62598547086586     -2.96724252107950
  H   3.70079683363788      3.56558749574654     -2.84501072974201
  H   4.56834948815729      2.27966755845976      0.93183769586062
