28
Coordinates from ORCA-job 18111optt
  Br  1.25451247261696     -0.20876543439563     -0.66393933170637
  C   3.16264212044396     -0.17406744833809     -0.48678678914087
  C   3.84980320784020     -1.33941983373652     -0.28351997847779
  O   3.14657723911317     -2.53608654024984     -0.36152993203385
  C   3.74842893146439     -3.72233566885350     -0.16452201898145
  N   3.13977191826622     -4.81892875656089     -0.41126031641898
  N   5.03041821622821     -3.71968606885463      0.32434078751598
  C   5.95660555732857     -2.64265158590651     -0.03223529696685
  C   6.57222592136766     -2.87499749847924     -1.38682841756629
  N   7.81218799581941     -2.67708863226978     -1.64883002683640
  C   7.95200600153391     -2.82406593408459     -3.09984047535225
  C   6.67614631713161     -3.55543360235441     -3.55546159537837
  N   5.76247113122780     -3.18457024675841     -2.48162440105667
  C   5.22174020263510     -1.34573613258669      0.01101282504150
  C   5.88261644188213     -0.08164905893161      0.12552629472083
  C   5.18192234870438      1.08502766532456     -0.06992385915949
  C   3.81487246795150      1.08742617878629     -0.39579341673409
  H   2.18677966101014     -4.60835817574154     -0.69282797805302
  H   5.41451718851856     -4.65405742612226      0.29526677893077
  H   6.78303653622240     -2.63092129391701      0.68288261335743
  H   8.86329685547027     -3.36546856744745     -3.35668848483531
  H   8.01177194569260     -1.83006245655950     -3.55712641425464
  H   6.83570818968797     -4.64066565142538     -3.58838827827473
  H   6.31453063671484     -3.22304668610492     -4.52823021821332
  H   4.95746154904893     -3.77332584168029     -2.31568761724336
  H   6.93738997896051     -0.06108186441745      0.37502990487798
  H   5.69760613859700      2.03484668393999      0.02913536693662
  H   3.27995282852149      1.99516987772532     -0.63114972469699
