27
Coordinates from ORCA-job 18113optt
  Br  1.20042605981121     -0.37534259980223     -0.43158494070950
  C   3.06715815216124     -0.23285949091392     -0.21723923664647
  C   3.84046102348639     -1.35237806725509      0.08779209586169
  O   3.20596703569032     -2.55288803698515      0.41326580973500
  C   3.27987672136175     -3.55441785192719     -0.51432032724005
  N   2.29054688975217     -3.92282401011300     -1.21142764590048
  N   4.46778858569201     -4.26238433318597     -0.53954910193611
  C   5.80459217044125     -3.68516439916959     -0.42972582899846
  C   5.91888491691053     -2.58489804464701      0.61956472389839
  C   5.22174995326877     -1.32008527557451      0.21425368528332
  C   5.85161570469753     -0.09593875880019     -0.01921223915238
  N   7.22408333654026      0.04236546183505     -0.13035193367007
  C   7.96106525629433      1.18496585879878     -0.15982052566815
  O   7.51710305670356      2.32894853422273     -0.01067273489925
  N   5.09005812087279      1.00752172576916     -0.39517662241371
  C   3.68895414928554      1.03505860812487     -0.45557747607569
  N   3.03728016715530      2.11740169690244     -0.72759188230152
  H   1.49673943898597     -3.32617435375506     -0.99024809636278
  H   4.40278192845131     -4.97701709687710     -1.24971635099448
  H   6.13225200568000     -3.27527792253773     -1.39377753783983
  H   6.47326457668802     -4.51089105532076     -0.16948902649520
  H   6.98059820198200     -2.40577335841291      0.80403844277353
  H   5.50350185041139     -2.96191219940295      1.56025807827133
  H   7.75079661504604     -0.81206042061465     -0.22328648696630
  H   9.02814987075026      0.97683067938436     -0.31964471615735
  H   5.57359550855007      1.89727214290627     -0.35497814361429
  H   3.68670870332987      2.88692256735136     -0.87378198178118
