24
Coordinates from ORCA-job 18119optt
  Br  1.89412819537681      0.22170504268913     -0.14037176950268
  C   3.51701822706829      1.17043005321798     -0.34131831389891
  C   3.55460927133513      2.49792222074018     -0.11701169084867
  O   2.39480957693218      3.10742609359983      0.18183931554518
  C   2.35896345062667      3.97026675457761      1.28107905839231
  N   1.29526834332893      4.66221416817697      1.34485319886841
  N   3.41183100566482      3.82715117570675      2.12670498405525
  C   4.02999056714529      4.90201665404308      2.61166575747023
  C   4.13678857783859      6.16990733678943      2.01424657054887
  C   3.89373255297834      6.48111686804501      0.68447028027522
  C   3.95498794632732      5.54873668012043     -0.43018709309040
  N   3.35888059889470      5.67178920744547     -1.56351873647889
  N   4.94084029702780      4.54653464452844     -0.32815172836220
  C   4.80896406962199      3.28682424202588     -0.27383676766384
  C   6.05445354866541      2.51370367897392     -0.36966398789235
  C   6.15568387232473      1.20830939270760     -0.61682081091405
  S   4.82479417816951      0.11983275893472     -0.78787178841235
  H   1.35697601056630      5.24862817387535      2.17332431468042
  H   4.52757393364844      4.76203926847923      3.57100101174536
  H   4.39596421700339      6.98591202658179      2.68501449062428
  H   3.69814174327026      7.51178043426057      0.40805203495090
  H   2.73075012119592      6.47212649215759     -1.50890781856504
  H   6.95305238226093      3.11312342629660     -0.29701054770015
  H   7.11779731272799      0.72850320602615     -0.74357996382690
