23
Coordinates from ORCA-job 18127optt
  Br  1.31516614243520     -2.40366367099421      0.11492931580374
  C   2.65203231332909     -1.06027273602944      0.05858518600440
  C   2.25821085019769      0.33100071876052      0.05705339181476
  O   0.91622294660254      0.39498668035577      0.19708924976502
  C   0.19127461403940      1.56969885359587      0.38087785097632
  N   -1.06475500162276      1.50894009398841      0.61676850196493
  N   1.03546114842297      2.56768516373680      0.25194676462571
  C   0.82077871309162      3.85661825449283      0.27000160039260
  C   1.95937483387833      4.58321367953380     -0.00704719193102
  N   3.12453278284935      3.98516197820178     -0.31292955483682
  C   3.55801609285122      2.75959775526089     -0.36425050500534
  C   3.25834230231066      1.31358277761891     -0.09924642484208
  O   4.56117011576185      0.78588792554221     -0.11836836909161
  C   4.92516106355753     -0.50651631113084     -0.05093839661101
  C   6.33000616510933     -0.76575788601418     -0.05528297005250
  O   6.82818025511418     -1.88919376511226     -0.00339883296371
  C   3.94475966183484     -1.48023525176107      0.01292914052185
  H   -1.36376022685533      0.53882096826127      0.65396830867709
  H   -0.15667261690224      4.30877728426354      0.44964373981130
  H   1.95595346621907      5.66588980498075     -0.04455644270125
  H   4.60105430347314      2.75017108339121     -0.67746116611677
  H   6.95915087755490      0.14028770168665     -0.10598669420863
  H   4.23433919674735     -2.51968110262926      0.03167349800303
