28
Coordinates from ORCA-job 18123optt
  Br  1.10246801203236      0.08524646062444     -2.61201890785067
  C   2.36678395473635      0.43083091316639     -1.20599601046563
  C   3.28183330974568      1.42771427717124     -1.35993055743169
  O   3.11746070137233      2.52550271490000     -2.20692576838461
  C   1.94064481034731      3.21439203561888     -2.31688216245588
  N   1.63329894254939      3.79251154290097     -3.40594099759950
  N   1.09334106120660      3.26165544793353     -1.23339551158143
  C   1.51907809606712      3.53750448306039      0.13210921284576
  C   0.45405847079085      3.10834039711749      1.14637195661129
  C   -0.05629101902314      1.65927672931974      1.03688362544107
  O   0.28374735854252      0.79577266766261      2.11195336344201
  C   1.65149566261073      0.56437041864579      2.39675304134508
  C   2.57493652876991      0.54607370502978      1.19647262201605
  N   3.58548047270310      1.34301892352442      1.28955829754225
  S   4.52427617167451      1.51584975892120     -0.15445155655418
  C   2.18444454883732     -0.27406134208187      0.02876175770582
  N   1.50120109883260     -1.39539270515117      0.11252470747420
  H   2.29305522387544      3.51126095926636     -4.12549958888078
  H   0.24829844172613      3.74110125296084     -1.51061586888386
  H   1.71274766625256      4.60963977262542      0.26665345254352
  H   2.45564569487910      3.02768870066833      0.31962801735018
  H   -0.40209725010083      3.78238776869141      1.03826967357109
  H   0.84680093722621      3.28048500041617      2.15198308313358
  H   -1.14596501976816      1.65878721395218      1.05589851718078
  H   0.24752505429176      1.22709443930868      0.08245317993453
  H   2.04031769841475      1.32828405215131      3.07602228984970
  H   1.67628142538507     -0.39511870061220      2.92103437819231
  H   1.36213194602237     -1.64021688779238      1.09032575390903
