23
Coordinates from ORCA-job 18126optt
  Br  1.21476961436183      0.35017079547637     -0.11541693799046
  C   3.09189549746762      0.56146241195582     -0.25007783596302
  C   3.65544467193968      1.76089611801343     -0.01833741627078
  O   2.97782835195795      2.87002612606937      0.32772161289656
  C   3.26182426501245      3.29886338832220      1.67688051067837
  N   3.27828591607206      2.45438982261398      2.63111606037387
  N   3.38555704131125      4.61803129084075      1.79852599787764
  C   3.78981483766572      5.40873927337778      0.80347872828047
  C   4.68578259205848      5.19630961978608     -0.29929050021583
  N   5.52657298619053      4.27431442168261     -0.65956923080063
  C   5.83994286766112      3.00581399627821     -0.26604841825723
  C   5.10498466170872      1.88354902555495     -0.09360570777218
  N   5.73206441525184      0.61125470812450     -0.02677802128138
  C   5.06773590147925     -0.51581714693343     -0.35967262827490
  N   3.79877342314991     -0.59907926359666     -0.54036549090936
  C   3.37768601779110      6.78208897567198      0.91266403188820
  C   3.03166745328241      7.93418370922318      0.98899911934576
  H   3.05479407504162      1.52291233543386      2.29172217101792
  H   4.74261959474763      6.08525602526976     -0.92785058436621
  H   6.91674893232258      2.82348737960281     -0.30637402213694
  H   6.73288464066750      0.57850637311045      0.07497263052066
  H   5.67726896680930     -1.40916157278388     -0.45699180869023
  H   2.71805327604940      8.94580218690584      1.06729774004970
