23
Coordinates from ORCA-job 18125optt
  Br  0.93849675994887     -1.51517715054068      1.16629277548315
  C   2.59043820796075     -0.78994233119705      0.63741616414955
  C   2.75715879724201      0.55477812426811      0.59835172365308
  O   1.77661003943673      1.37454387027487      0.99105287035604
  C   1.25004077735201      2.28270125979246     -0.02350617753055
  N   0.10491824316311      1.99224253927135     -0.49543532085804
  N   1.96320596249360      3.37847827537156     -0.27905712819587
  C   3.25264403670838      3.51540363033587     -0.01722443973452
  C   4.29270242327935      2.58675379006211      0.24230582691871
  N   5.51706381795283      3.07378505156732      0.41546632868298
  C   4.03318580470423      1.12702758965005      0.20655201013621
  C   5.00018440179662      0.26713638210638     -0.15131394882365
  N   4.85455955723403     -1.12373081605048     -0.13627654070749
  C   5.95798106772114     -1.85119455675657     -0.53859658388001
  O   6.06228581693138     -3.05079109998711     -0.58862551947490
  C   3.63390896543018     -1.75120968999304      0.29106446806372
  N   3.44687106216588     -3.00483707958019      0.35815009152065
  H   -0.21011528360628      1.11468205926417     -0.09166384060141
  H   3.62623407117026      4.53514828903635     -0.07608586721888
  H   6.15888523635577      2.32995059960378      0.67953473758339
  H   5.96592421164670      0.61718119170656     -0.48634808582949
  H   6.78729007098721     -1.18829277644107     -0.82657895622154
  H   4.26852595192520     -3.52363715176478      0.07252541252889
