25
Coordinates from ORCA-job 18122optt
  Br  3.14102785273321     -1.61003096378348     -1.90334336978838
  C   3.12696999976121     -0.13257154583970     -0.70587102943970
  C   1.98058640679493      0.59896893590229     -0.46709612243448
  O   0.76744839700695      0.28944770605667     -1.05753928114449
  C   -0.06531517162837      1.39951314492089     -1.07833392351068
  N   -1.19049972479494      1.44341987991060     -0.52546633317381
  N   0.42903208396743      2.41408422220198     -1.88613540022658
  C   0.66577845142488      3.73644779970172     -1.47285259382381
  C   0.78168980759050      4.30124306276181     -0.27061593361058
  C   0.66720838381793      3.87158187372421      1.16496513814426
  N   -0.45801783869746      3.74856254549913      1.75253048357554
  C   1.92233197755690      3.92954069306266      1.95210636073307
  C   3.04960364590564      3.17564013730024      1.75848177341881
  C   3.11757671606824      2.03897204991809      0.91682981358904
  C   4.27146011337933      1.25903999528410      0.68353021241262
  N   4.29018195896611      0.20026223778845     -0.09328444435491
  N   1.94620438260554      1.63074344945930      0.32795442199795
  H   -1.29919802109590      0.63540942757049      0.08135289072434
  H   1.13435107728582      2.08082572833914     -2.52859001814298
  H   0.82592068213737      4.38324038365376     -2.32928776395443
  H   1.01347119019322      5.36267139401969     -0.32646299892545
  H   -1.20790458840861      3.79384492511664      1.06099213296889
  H   1.89680014241738      4.62764166227876      2.78148917087934
  H   3.92989127566052      3.39795169902881      2.35394326574359
  H   5.20940079935213      1.53454955612370      1.15970354834283
