30
Coordinates from ORCA-job 18128optt
  Br  1.89793116410339     -1.05213690875004     -1.91236891515557
  C   2.62406865564219      0.04150023144457     -0.55887679046110
  C   2.25748017756482      1.40204210506790     -0.45682369216734
  O   1.19869801557604      1.88563729337911     -1.21995953640136
  C   -0.06147290059955      1.72768619920317     -0.71472095288287
  N   -0.46105121928651      0.91116707827750      0.15439199937719
  N   -0.91797143418539      2.63994414445630     -1.34000827075318
  C   -1.73306178967576      3.42810550551137     -0.42884128397237
  C   -0.92676652298714      4.55586910359348      0.23759046660950
  N   0.35193564994534      4.07660180920709      0.72966222373742
  C   1.52402972587485      4.46478716548995     -0.03388852934820
  C   2.79344526070044      3.78189524022217      0.45345063004328
  C   2.94725349444552      2.27241023119908      0.38190214904528
  N   3.93923427606992      1.84787672333556      1.16430645323993
  N   4.15965671326573      0.48359599516290      1.15707134798533
  C   3.70803639507815     -0.45199192686227      0.21807861674998
  N   4.21361802645637     -1.64332915645687      0.12619796108520
  H   0.31303192685199      0.34864123983159      0.50042512895348
  H   -0.39173231498144      3.21453407254116     -1.98435661871436
  H   -2.10878003174582      2.73903463376148      0.32557545684532
  H   -2.58693268558731      3.84889931746443     -0.96692434263528
  H   -0.77164221635542      5.36593463779819     -0.49043503760225
  H   -1.52082266832099      4.98131384001431      1.05221712954052
  H   0.48572539492054      4.23919649310925      1.71619728786367
  H   1.69251869613790      5.55559273514858      0.00593990510492
  H   1.34883831864119      4.21600587262822     -1.07965832621399
  H   2.96037028219874      4.05692846383120      1.50022518355850
  H   3.62934241463011      4.22612833018930     -0.09849801370862
  H   5.01808111435953      0.23972348262041      1.62136235170146
  H   4.97193808126253     -1.74959395241914      0.79776601857551
