25
Coordinates from ORCA-job 18135optt
  Br  2.93063712971738     -1.74707539587158      2.09108280667119
  C   3.00988073333551     -0.22010256823588      0.94201404483665
  C   2.90410633976251      1.06573055328507      1.50139772271582
  O   1.80186510449284      1.32704036639837      2.42330570351283
  C   0.67671157512594      1.57387050969090      1.67045807847751
  N   -0.05902877388262      0.69130665592968      1.14701217326763
  N   0.43507660624387      2.93194551944242      1.46537918856103
  C   0.24650457167352      3.38797492427611      0.08575495603677
  C   1.31536551298196      4.43114152178746     -0.23943979537599
  O   1.30177727876922      5.49317925483193      0.33655031937808
  C   2.42779973946339      4.21703090297838     -1.28019128013488
  N   2.65285723106331      2.86270413072837     -1.68528626351392
  C   2.98511787824463      1.91910033385683     -0.73213999946597
  O   3.03700246799035      0.69142656954470     -1.25907303190609
  C   3.21968309066886     -0.47215896650765     -0.41863838064143
  O   3.48063662951818     -1.48633421047058     -1.03062959534906
  C   3.11673689047046      2.16994438722846      0.58491201368716
  H   0.33466542028058     -0.22815363308282      1.33739301227780
  H   1.07706977820111      3.50799715472729      1.98824206049412
  H   -0.72123935298567      3.88335600091533     -0.03317535006350
  H   0.29086002350355      2.52736544365060     -0.57938275124015
  H   2.13851266470516      4.79991345665943     -2.15802356926928
  H   3.31187938156296      4.70559705637556     -0.84890505788846
  H   2.99488318477723      2.69129867763288     -2.61751519564933
  H   3.14863889431573      3.18490135422867      0.95489819058147
