21
Coordinates from ORCA-job 18132optt
  Br  1.34961406920966     -1.90576311227560      0.63876484525625
  C   3.02477037090212     -1.15378495597843      0.21507539342949
  C   3.26712544163171      0.18278152299472      0.27892190130281
  O   2.29607250566285      1.02207385556703      0.71508405890817
  C   2.03734613480341      2.21797081555223     -0.02263400323811
  N   0.91842314204717      2.29016268426834     -0.62062001253753
  N   2.90091581381825      3.25298793863797      0.07094473139583
  C   4.21705059971586      3.15782245694466      0.15064951625805
  C   4.82685938891610      4.51304327963753      0.30699389600369
  O   5.98685434179098      4.77561947664126      0.51346759653838
  C   5.02440051194733      2.01262009505613      0.04500081806863
  C   4.55548542301695      0.68304153148193     -0.01090167404848
  C   5.67797209888152     -0.19130487883363     -0.21843033843153
  C   6.85516138448141      0.64985951803254     -0.29363786089759
  C   6.46313592708806      1.94335556371313     -0.13194562768695
  N   5.67515731569836     -1.50188025011968     -0.29754625461489
  S   4.25183460054391     -2.32966543649002     -0.17770946810162
  H   0.43319995055707      1.40253170675416     -0.51423072497046
  H   4.06382980774428      5.30888110929913      0.22433907038906
  H   7.85470305864947      0.27907945331064     -0.45840745268570
  H   7.10308811289348      2.81056762580591     -0.14217841033753
