23
Coordinates from ORCA-job 18149optt
  Br  1.30617736508311     -0.14484875388564      0.51552207569839
  C   3.16539400087863     -0.27243814051515      0.27091687212772
  C   3.79471466277171     -1.40993247152135     -0.02622432848629
  O   3.03948944158041     -2.56071648102581     -0.16847057743633
  C   3.60638354734326     -3.78344749209908     -0.32383484419303
  N   2.90289551780152     -4.82713395853962     -0.49666285105489
  N   4.96659802249577     -3.82624937123927     -0.26715975008458
  C   5.77383624578917     -2.67737388186948     -0.40622888470673
  O   7.11410346029113     -3.00408317101555     -0.36311802454849
  C   7.79047430084186     -2.72258655507483      0.78998692816592
  N   8.99151493026451     -3.03223350731048      0.97498183041817
  C   5.22858363654515     -1.42939273387580     -0.22873509851530
  C   5.91673044796261     -0.17139617393041     -0.23743986149106
  N   7.18228685993865      0.05111047815958     -0.52980719997720
  C   5.14706169141459      1.03250281432353      0.14228127755322
  N   5.60926180113490      2.20589279501813      0.25598998603987
  O   3.79138938621074      0.90735209029518      0.41047191486820
  H   1.91925821035859     -4.57913644270455     -0.46696193788844
  H   5.36242798343241     -4.70637795714673     -0.55727684641630
  H   7.19611050688524     -2.18772280696971      1.52793219551230
  H   9.36173294535193     -3.50961855534354      0.15189524399556
  H   7.63453342434256     -0.79778390879977     -0.85025281176980
  H   6.60204161128140      2.13561418507038      0.03019469218908
