20
Coordinates from ORCA-job 18153optt
  Br  1.19195885763237     -1.43782863908551     -1.09031997852083
  C   2.91484370802861     -0.78815108933210     -0.62938259774238
  C   3.13510461284197      0.56439344797629     -0.49545829632754
  O   2.20198600887807      1.44299399250477     -1.04531644725599
  C   1.48257025734533      2.20466528387420     -0.18936226919574
  N   0.22935060102055      2.32832577990395     -0.24690495040660
  N   2.21216458018046      2.91422330247885      0.75473159377287
  C   3.52270346083530      3.39285815591521      0.65955252729772
  O   3.80295520800879      4.47109834158420      1.10893244397219
  N   4.43639989274706      2.51414844626160      0.07865795399069
  C   5.66620872279567      2.96544662837661     -0.40958556889841
  O   5.98918865629441      4.10814877592578     -0.56154129215308
  C   4.24869683898111      1.08638579326707      0.13717774226095
  N   5.21000203480251      0.42959559147972      0.80833766835981
  C   5.30344429173416     -0.89140191956835      0.85053878635908
  O   6.09806640007337     -1.57294012389364      1.45774810069340
  S   4.10928629503723     -1.94306334181931     -0.15805414509405
  H   -0.13473503509217      1.68205585061930     -0.94211192644261
  H   1.62978009301868      3.53867009027117      1.29424665133503
  H   6.30202451483642      2.10937563326015     -0.67188599600450
