24
Coordinates from ORCA-job 18152opt
  Br  3.51786107106438     -2.28051749947409      4.38276003328169
  C   4.19144339761316     -1.43460311009172      1.72149339713436
  C   4.72850622368402     -2.03157832658859      2.87700855790980
  O   5.98558921146623     -1.62853536941699      3.29058983663295
  C   6.87932384214865     -2.55441215472065      3.70435008272845
  N   6.56019388441667     -3.59266644709926      4.34762046763275
  N   8.16959577701997     -2.16497352610084      3.35395637985957
  C   8.53424865041362     -1.22926216568644      2.36049034737951
  O   9.54565413499130     -0.58899258436677      2.48868609917401
  N   7.67028094968386     -1.23077301926662      1.29899147907873
  C   7.29674920036639     -0.08570249575720      0.55085993437041
  N   8.22368825550924      0.72677135805933      0.18212797376158
  C   5.90467014516780      0.00525519803517      0.22860413751182
  C   4.73698777392875     -0.62331836176850      0.66712203202610
  O   3.68598541335230     -0.34318705567348     -0.20672241951309
  C   2.56021478914390     -0.93834048510760      0.24953666709085
  C   2.79257460576325     -1.61333429689166      1.37931568531786
  H   6.92585653073436     -1.90448331763301      1.36049551590426
  H   8.90695120616918     -2.36241339635128      4.01070240042697
  H   7.37977717034124     -4.17414650599252      4.49584360100767
  H   7.78655613144819      1.51695536287077     -0.28602684135712
  H   5.70673271766606      0.69212159676362     -0.58538448671939
  H   1.67123409215836     -0.78371311787163     -0.33790731283208
  H   2.07832482574849     -2.17415027986991      1.95548643219210
