22
Coordinates from ORCA-job 18154optt
  Br  1.04438141650588     -2.32811338475777      0.03920866446873
  C   2.68973458801667     -0.66491715077730      0.66594446528216
  C   2.29812190085151      0.63796248182774      0.68162775975208
  O   1.10440903359109      1.08635247604780      1.27002967834406
  C   0.19796409470296      1.61859490700505      0.40379265020372
  N   -0.24426291358272      1.10835589457218     -0.64898461961498
  N   -0.21819614692486      2.91224596017267      0.82398680827363
  C   0.10501733229601      4.11553698791480      0.24036475718361
  O   -0.25043090152512      5.17235211508825      0.66865777562197
  O   0.81854899032802      4.05823082480508     -0.94034146849828
  C   1.80210560626509      3.11889381304608     -1.02320226984494
  N   2.52037338015545      2.86010516023897     -0.03301968026918
  C   3.11784068948578      1.58214961012752      0.01210224152401
  N   4.26386029326834      1.32600079453905     -0.54151604729599
  C   4.74505953318452      0.03215777920985     -0.45442434713308
  N   5.88745999012302     -0.37009627281251     -0.87087326704399
  N   3.88906800284444     -0.92077086668959      0.11971156515256
  H   0.17738556487395      0.18395808926405     -0.79220342887871
  H   -0.38209273977040      3.01323282734064      1.81489988199265
  H   1.81412196780795      2.61626838112459     -1.98898855266234
  H   6.37622769373063      0.42498961084348     -1.27043013352060
  H   4.21130262377174     -1.87649003813066      0.06065756696294
