21
Coordinates from ORCA-job 18158optt
  Br  1.03537982042043     -0.01343860671850     -0.20986896619880
  C   2.91071023437067      0.10191485183176     -0.09645933279964
  C   3.66632182472326     -1.05551234428845     -0.05420331335411
  O   3.05249721931650     -2.29325636106651     -0.01944656944784
  C   3.81918868337307     -3.41361773421211      0.03072502651186
  N   3.31271065774414     -4.56626024409695      0.18571526169588
  N   5.16061167230065     -3.23492524927210     -0.14999108907701
  N   5.85538129685211     -2.04097338362012     -0.00616903043326
  C   5.06165528858333     -1.01272778760327     -0.00267263222875
  O   5.67430231808275      0.19933390748890      0.05510011826791
  C   4.99894414764097      1.38856501411274      0.02632049124517
  N   5.65903850312137      2.47378160273286      0.06333870439568
  C   7.10195039861951      2.37122722727531      0.10324811392107
  C   7.62389643976981      2.16839559824075      1.46682512888453
  N   8.05228324201128      2.03713979955933      2.52221865495019
  C   3.49798534581974      1.39560121543361     -0.06643076909660
  O   2.89182516791183      2.46935480716173     -0.11112795117584
  H   2.30214405939986     -4.48826784245268      0.23895990932545
  H   5.71630078855348     -4.05423930841576      0.02138084856940
  H   7.52403652817602      3.31095935370460     -0.25586148942964
  H   7.49783636320911      1.55794548420484     -0.51360111452566
