20
Coordinates from ORCA-job 18161opt
  Br  3.31504147906892      1.37266831505804     -2.27786182954866
  C   4.71928520997624      0.06723927870574     -1.98853638081924
  C   5.89856589556264      0.12667208871397     -2.73178871245622
  O   7.03938710231346     -0.25409951369166     -1.96500735108962
  C   7.00969373221987      0.31573574831215     -0.74694674214668
  N   5.97395271168481      0.39148924499934     -0.02137809229732
  O   4.87355201688244     -0.23411069850843     -0.65311302906799
  C   8.27520774806532      0.92298965885798     -0.16802576931940
  O   8.50201262967324      0.95235810059370      0.99853911869000
  O   9.15962493535736      1.48028821295942     -1.03516985458000
  C   8.97818050379720      1.37025770986736     -2.39925921014051
  C   8.27310766459791      2.22790061760033     -3.11441356372443
  O   8.05475086066318      1.95675990737187     -4.44322580638639
  C   7.47642778555716      0.69789667219675     -4.66177458441574
  N   8.00286053191393     -0.12143503567631     -5.45100545858635
  C   6.08080737676941      0.52692252248640     -4.06748970322475
  O   5.15852068019886      0.80163512639611     -4.85459586832321
  H   9.41232190434025      0.48467428181415     -2.84445461618725
  H   7.82193291454606      3.13090272978695     -2.72232180374326
  H   8.86976631681127      0.26725503215611     -5.82517074263279
