22
Coordinates from ORCA-job 18160optt
  Br  2.78854466702988     -0.31803090350709      1.82814473005532
  C   3.02734071918498      1.30655747487677      0.67271689688442
  C   3.66643892483182      2.40307116651996      1.48967018950212
  O   5.35383460308358      0.72784934869228      0.22294287091940
  C   5.82834507902749      1.42949580232685      1.11142732293092
  N   4.99422844288467      2.33310186820572      1.78470330212120
  O   2.50088484697395      1.36905516493105     -0.36829289935039
  C   7.23490499489005      1.46651976743389      1.48170648456487
  N   8.11075959657846      0.62611812191429      0.97017026024179
  C   7.64420615983108      2.60404916383057      2.28732041880121
  N   6.86122137967465      3.39277046838723      2.95767965427641
  C   5.48485296141592      2.99983075154683      3.01375421231626
  C   4.62754298686333      4.21144176236464      3.23729753775891
  C   3.40705661000962      4.29316694757343      2.70736689099820
  N   2.84233897683120      3.28734406344033      1.92029347949848
  C   9.05409929726576      2.91929064230267      2.30496272645507
  C   10.22128898304384      3.19333633478126      2.32360427071313
  H   7.59413138722566     -0.02394454403307      0.37597063068988
  H   5.38052919980914      2.26242248345388      3.83348811112921
  H   5.05605466568627      4.99993157828620      3.83944251150481
  H   2.77489662453295      5.15843120247844      2.86104001826913
  H   11.25749889332541      3.42719133419373      2.33359037971953
