20
Coordinates from ORCA-job 18162optt
  Br  3.98365268622074     -4.04277248732583      1.05132989853325
  C   4.79393477508146     -2.51113972357075      0.30906067245882
  C   6.13150344156191     -2.35152939462596      0.18739194175631
  O   6.38420518246661     -1.18259070016907     -0.52648875767741
  C   5.76791323597283     -1.31652392266004     -1.74611684274643
  N   4.52228285023328     -1.57132686580345     -1.80456259496321
  O   4.00653488150024     -1.70271227451164     -0.43668252890516
  N   6.71762073937804     -1.29682832551251     -2.75622119961473
  C   7.20844778847639     -2.47036128139657     -2.89690732598625
  C   8.60822413510089     -2.78362646925782     -3.41614952025208
  O   9.01737679055908     -2.28387863266342     -4.44633766277816
  N   9.29930149545049     -3.70520193984218     -2.66766377953173
  C   8.90223915777736     -3.92030287067472     -1.41151879271588
  N   8.07071925557104     -3.08583918271198     -0.79114762209100
  C   7.22464362974442     -3.28960412202013      0.19927647131688
  C   9.34813501015191     -5.11434766762765     -0.73591181394813
  C   9.65278008526175     -6.08321238512398     -0.09275973513322
  H   6.63172951258730     -3.35050711670118     -2.59515359145010
  H   7.16954470351515     -4.19859423318567      0.79503588877873
  H   9.93621064338900     -6.94710040461541      0.45752689494953
