22
Coordinates from ORCA-job 18164optt
  Br  0.53782180499191     -1.02614603553246     -3.61031679703162
  C   1.70938181401961      0.43421949504219     -3.36400871159906
  C   2.39894785695680      0.53284456034333     -2.14030917100466
  O   3.39204243499815      1.52236955628800     -2.10371308446092
  C   3.84137140340098      2.06458364049936     -3.24719034209521
  N   5.02355695256529      2.49307660136119     -3.31335872909936
  O   2.94514387111047      2.22538024152993     -4.24624437905335
  C   1.75781057720276      1.47500510208638     -4.27817319914394
  C   0.84513299990858      1.89156713973122     -5.23591670339002
  C   -0.57071748009430      1.81342223770726     -5.12770740372829
  O   -1.35044097936906      1.85957609784575     -6.08142937749910
  C   -1.27749406134152      1.79503704979059     -3.75266590833490
  N   -2.30742852521839      1.13166132659709     -3.49426234943039
  O   -0.81922011355620      2.72283540716552     -2.82820010381451
  C   0.04926323027477      2.28961678255661     -1.86832409802558
  C   -0.03674315321310      1.14359764210064     -1.19336020672650
  S   1.48671739847448      0.43628916727086     -0.62231183226233
  H   5.16170274152161      2.93191967791267     -4.21900324462489
  H   1.22529427217469      2.35083778984960     -6.14063046512049
  H   -2.52879672024158      0.57130434577994     -4.31890772190875
  H   0.90376044203270      2.95191616982715     -1.76663815637731
  H   -0.89210676659867      0.49008600424714     -1.30432801526875
