21
Coordinates from ORCA-job 18166optt
  Br  0.16003132395570     -0.22565233365606     -0.08362961140730
  C   1.07234334477948     -1.52686909139324      0.91509787868660
  C   1.92633998087072     -1.23738122167043      1.90540031622958
  O   2.71741233247945     -2.24285013359480      2.40876372978934
  C   2.95225720360136     -3.35312748456594      1.67800453153109
  N   3.99053493356727     -4.02657419192361      1.89822117527338
  O   2.03263507535441     -3.68148819486845      0.74521583232936
  C   0.83537032915721     -2.94585861090566      0.75426831736358
  C   -0.30744424858237     -3.63332922433253      0.80276164304206
  S   -1.92758611491692     -3.04267033402804      1.08241587548651
  C   -1.81526770870878     -1.50176749180408      2.10925971056724
  O   -2.65971288667248     -0.64755531202281      1.84921626188526
  C   -0.79255724618213     -1.44691880421834      3.10892851994865
  N   -0.12083502855122     -2.38647565202096      3.72244304319287
  S   -0.41105268864267      0.25543486987428      3.57489690690830
  C   1.23369066168510      0.57699439518076      3.13517585936506
  N   2.16946297096240     -0.03622440532784      2.51587585318092
  H   3.97324917112944     -4.85811756858851      1.31525894720542
  H   -0.22955870429872     -4.71167664925151      0.72447360687312
  H   -0.46749287545021     -3.29579631615688      3.41619325818394
  H   1.49318017446294      1.56190375527468      3.52575834436500
