22
Coordinates from ORCA-job 18170optt
  Br  0.59092560865651      0.27551290344816     -1.07166437875437
  C   2.72155656406176      0.08586769998767      0.14826119616167
  C   3.49725786200477      1.18808709898561      0.16568720550151
  O   3.09165866887172      2.52256274885191      0.19019610378461
  C   4.18727000875534      3.30819611243606      0.19158519161651
  N   4.24343318980350      4.55928340166456      0.20092606194861
  O   5.32090458379405      2.54011741840962      0.18410452803123
  C   4.90319745915016      1.23119191362891      0.15920074260578
  C   5.64349028554565      0.09609850773546      0.12710821171964
  N   7.01306777691813     -0.09809791589176      0.11021378083904
  C   7.96842559604251      0.88384723527462      0.19106591591440
  N   9.22771007905465      0.72061814878542      0.19086428995719
  N   4.88415623333576     -1.04420160524459      0.10985464367558
  N   5.41560014183789     -2.28400376011101      0.08874674148829
  C   4.32096102534587     -3.03750918673915      0.08388929181919
  N   3.15239148022678     -2.39641592911652      0.10353883045991
  C   3.49271878566415     -1.09886835751735      0.11910509263992
  H   3.30250415270418      4.94002402125192      0.19942239662549
  H   7.28566462441553     -1.07269026241782      0.06371095839070
  H   7.55881644924504      1.88839120233040      0.26165052592652
  H   9.47496689744585     -0.26730553258907      0.11862345459413
  H   4.40332252712003     -4.11370586316306      0.06590921505444
