22
Coordinates from ORCA-job 18174optt
  Br  1.13022623016204      0.07758309763626      0.62769905503258
  C   2.96261548382351      0.02244429424918      0.10473084779714
  C   3.70000854503504      1.12973100720206      0.09784571378437
  O   3.21852031448216      2.35125593243818      0.49447275065945
  C   3.79273138331033      3.48891927846882      0.02396014841038
  N   3.24268943652470      4.61336907393176      0.09549949707013
  O   5.00225040912458      3.35651150890029     -0.53691401102406
  C   5.76534176320479      2.23835815626488     -0.25006450047153
  C   7.09260542962466      2.30155817262672     -0.12608781594609
  C   7.89651141311690      1.10978995528695      0.15222609436812
  N   9.18872094643336      1.15121344327121      0.29903796001210
  C   7.18029067405511     -0.17128294823450      0.26196829729983
  O   7.74831703259360     -1.25383581897551      0.50060465964273
  C   5.73178323198151     -0.16427574453301      0.06037178102896
  C   4.95745666348034     -1.27648196854224      0.12742227401555
  N   3.54042418917133     -1.22463075314978     -0.11267891072886
  N   5.05930181315331      1.06913064832985     -0.17866453260024
  H   2.31129482917120      4.50814377843980      0.48624052797140
  H   7.57408073181746      3.26319309655192     -0.24298213983488
  H   9.50408615811916      2.11516460999055      0.18942912230830
  H   5.39163152065194     -2.22520444164310      0.39560548675263
  H   3.25011180096285     -1.64365437851028     -0.99172230554801
