21
Coordinates from ORCA-job 18176opt
  Br  1.15087095728748     -0.12008500456619     -0.84874859478679
  C   2.96527235774643     -0.03352735079541     -0.29000849055372
  C   3.63902680988868     -1.25688830789050     -0.12556189434535
  O   2.96172175414450     -2.28144198258330      0.68102842342489
  C   2.78736214883395     -3.46031900987157      0.08924252882955
  N   1.70974317446803     -4.00725520171933     -0.23818601175172
  O   3.94503793118567     -4.17840731066115     -0.12953754435846
  C   5.13618007755828     -3.65934866410814      0.17698132840599
  C   5.65788352706162     -2.41025465286255      0.35324617331241
  C   7.01656059632575     -2.69157977114382      0.64956468678709
  N   7.27344810894859     -3.96905223911442      0.64232498324053
  O   6.08479892016770     -4.58750746119264      0.34924420404586
  N   4.99627369156186     -1.19830397805375      0.25699691183699
  C   5.62627567297884      0.01028533435621      0.42540134374784
  C   4.99085646783327      1.17313093593214      0.22500882934005
  C   3.58151870223510      1.24046283941581     -0.22202796251944
  O   3.06104137373030      2.33367104294385     -0.49175986381902
  H   0.95953977497890     -3.34371423245528     -0.05840622675882
  H   7.81834782754833     -2.00048251991829      0.85730850154572
  H   6.66585014009588     -0.04056322274851      0.72169747808426
  H   5.50738998542057      2.11118075703692      0.36919119629212
