27
Coordinates from ORCA-job 18185optt
  Br  0.87742986571859     -2.13844900582652      0.45518463555724
  C   2.71120938042706     -0.58275075480670      0.68987654636194
  C   2.35872740070625      0.75312908420792      0.72682929293744
  O   1.27111315682064      1.17041454320037      1.50195978010064
  C   0.23533282355061      1.68949045548820      0.79278854516183
  N   -0.40599687020439      1.14226143406231     -0.13292210600533
  O   -0.01893498534419      2.93721834797836      1.24935190808591
  C   -0.51478539593051      3.86439616854936      0.28543761138200
  C   0.64204448095889      4.60094524261778     -0.38437810719335
  C   1.72882311906991      3.66429276100156     -0.92989014108200
  C   2.73237381699502      3.18879706681230      0.15438593166403
  C   3.09997821818822      1.73044788213390      0.06206835178226
  N   4.17229509144662      1.41379388283786     -0.67680102448579
  C   4.52877638349729      0.14040292765133     -0.73052074022869
  C   3.84903184090960     -0.88067994675440     -0.06375125210657
  C   4.36941041063634     -2.21479391966736     -0.17577577868816
  N   4.85127952706185     -3.25114188477170     -0.29685368866049
  H   -0.07767916346838      0.18461502751612     -0.27600197251754
  H   -1.15506557231836      4.55697522190900      0.83200221198267
  H   -1.11408337158338      3.32597971128588     -0.44824938761819
  H   0.21617368567722      5.19782787677313     -1.19625925228783
  H   1.09147287048558      5.30294748847358      0.32449937081667
  H   2.28596962109598      4.17659818533665     -1.71512720255358
  H   1.25395302241942      2.80498441904795     -1.40638547675692
  H   2.31505187128899      3.37973876021325      1.14236843364329
  H   3.65667478000041      3.75920244571402      0.06301240305296
  H   5.40742399189465     -0.09964342098421     -1.32184889234444
