25
Coordinates from ORCA-job 18188optt
  Br  1.23296907698645     -0.28002246245788     -1.05368334981212
  C   2.89914499846129     -0.12673838437087      0.38977850923821
  C   3.71396829966971     -1.23969795043497      0.46166612188930
  O   3.13701654037802     -2.50776531658991      0.60734789469670
  C   3.30871001795570     -3.38608493207021     -0.42369920134239
  N   2.44471206812908     -3.66361888873699     -1.28541243073511
  O   4.47979342281152     -4.07524421722632     -0.38721633243116
  C   5.69787069899770     -3.33435515688683     -0.51664233070500
  C   5.74204594181628     -2.68116706660512     -1.89021113580253
  C   7.09357314898698     -2.15109900115484     -2.26119378563184
  O   8.11059669623796     -2.38900631292834     -1.66384935553991
  C   5.93028884277986     -2.34069091014471      0.62633342433225
  C   5.09714944896159     -1.09881593417181      0.48530682914967
  C   5.66714172312225      0.14434473185957      0.30535777119348
  C   4.85329588017038      1.30993133455215      0.19503544273730
  O   5.19571790424170      2.45828843668192      0.04016745113070
  O   3.46945533392534      1.07800204276163      0.32310612138059
  H   1.63148210795982     -3.06554353178083     -1.13614254570237
  H   6.47105578446956     -4.09957236559039     -0.45869556058735
  H   5.01378653614889     -1.86698437208629     -1.97199244607922
  H   5.45400474097654     -3.41231435014029     -2.65452700173056
  H   7.11841500001161     -1.51891749238419     -3.16894471288678
  H   6.98845361789535     -2.07986545785605      0.63858867710137
  H   5.68619128362790     -2.85218370304288      1.56049186823681
  H   6.73816088527827      0.28212126080452      0.27303007789998
