27
Coordinates from ORCA-job 18187optt
  Br  0.81104037576720      0.99033155922664      2.67206260716427
  C   1.77260509673046      0.83354614494956      1.01200722237144
  C   2.94219220784749      1.53360375599002      0.85158340796239
  O   3.11737813838673      2.73402602947727      1.54089469575320
  C   2.16860356363771      3.66268458539077      1.29530913795023
  N   1.94785040501043      4.56613135787917      2.14692920679412
  O   1.63231116549290      3.48080555182398      0.07080725254798
  C   0.49458782289212      4.20627245199127     -0.36023770733810
  C   -0.84991418253847      3.58090216014585      0.00766874730839
  C   -1.28944260191397      2.32931393127445     -0.77969358476525
  N   -0.80230526571098      1.08421541460820     -0.21997256265021
  C   0.18393798359632      0.35034869558566     -0.89830139880485
  N   -0.00303612069477      0.07569499203133     -2.14490338398954
  C   1.39208775896738      0.06387981529972     -0.14099382495709
  N   2.45048883882921     -0.51379510371737     -0.82175547029949
  C   3.61600323445428      0.04361701610268     -0.66911360298876
  N   3.88815337181051      1.19266702391120      0.00280588847880
  H   1.25648544341760      5.22893112173656      1.81723589301763
  H   0.54594422330825      5.23386206903924      0.01185928144416
  H   0.59661688103956      4.24766044677091     -1.44549827182586
  H   -1.59569882412266      4.36492639874467     -0.16370001319001
  H   -0.86669675885906      3.36807234673010      1.08227440427685
  H   -2.38462368321027      2.32489431284126     -0.80535936690655
  H   -0.95435054086121      2.38079222633085     -1.81801075444464
  H   -0.64526505373891      1.14609970177027      0.77083570075584
  H   0.83610085593718     -0.38726493682211     -2.48963289552530
  H   4.45694566452495     -0.41221906911216     -1.18410060813964
