26
Coordinates from ORCA-job 18182optt
  Br  0.45363482508500      0.24776076530290      0.35687912062745
  C   3.00204272187958      0.06110604469241     -0.07686706371440
  C   3.73770061375994     -1.10040443792701     -0.16249260627906
  O   3.07428846812071     -2.29688919645752     -0.40957759867728
  C   3.68117611593878     -3.48283214283782     -0.26597324203815
  N   3.10272939714944     -4.58069326745933     -0.48075749081345
  O   4.95592329693981     -3.49562463729926      0.18604382907642
  C   5.82328619283887     -2.42120113485477     -0.16522961252405
  C   6.40197655200196     -2.69052709517437     -1.55304107377077
  C   7.17206165795833     -4.02355554350421     -1.66527409332831
  N   6.37157389137706     -4.85082154221106     -2.57307133097292
  C   5.39575519414022     -4.13603158721875     -2.91878336126758
  O   5.30988181548383     -2.86181804866319     -2.47225576088272
  C   5.11884243281848     -1.10763389043719     -0.04608710316167
  C   5.78906531297135      0.09053771675309      0.17312911860838
  C   5.06757370715575      1.27269761274178      0.25804986502831
  C   3.67706284247305      1.24707721548754      0.13684542101550
  H   2.13313707818949     -4.39129639072137     -0.72000493161223
  H   6.64765327141895     -2.47471392743509      0.55145211009340
  H   6.98213717324255     -1.82248956708186     -1.87021925125173
  H   7.25374800889166     -4.52183777856477     -0.69753676497282
  H   8.17661480491443     -3.89378879448645     -2.07100250908500
  H   4.58361025175787     -4.44044380781714     -3.56510729410334
  H   6.86877363818532      0.08968652089817      0.28307340585673
  H   5.58440840346904      2.20992384789606      0.43078995095903
  H   3.10734233183835      2.16681306637929      0.22201826719029
