23
Coordinates from ORCA-job 18197optt
  Br  0.85983456817360      0.89652270427810      2.25164206014585
  C   2.17382222278079      0.66793179554354      0.90409736783373
  C   3.34462001213717      1.39245209440262      0.91887495572460
  O   3.38096491151059      2.61079800132162      1.57877771985197
  C   2.39122265783009      3.46436039616218      1.23484325577344
  N   2.16833694356944      4.47478337497546      1.95020431129691
  O   1.79796236340810      3.11350487750819      0.06637958879131
  C   0.40688564020173      3.30789077431395     -0.07460214001393
  C   -0.55953244180037      2.15578303475177     -0.42920614246075
  O   -1.71649039611954      2.55679075908475     -0.42123475807897
  N   -0.31335789727667      0.86417286514621     -0.75614794475962
  C   0.78509032187537      0.01048636235851     -1.11353474417853
  N   0.53468264145769     -0.72627986007120     -2.15559640055537
  C   1.96480164528174     -0.02057040016694     -0.32249056912721
  N   3.10177990723568     -0.57322398283795     -0.88448483294322
  C   4.23739500471048     -0.04453232765902     -0.53316849450506
  N   4.41091509789259      1.06857502632216      0.22134689502608
  H   1.46742052493424      5.07070259061094      1.52234115240762
  H   -0.01090362892962      3.70249767635699      0.85138045621964
  H   0.24077909054635      4.04114944899701     -0.86501680247429
  H   -1.17903318067875      0.44355113933613     -1.07465240825845
  H   1.33243933298021     -1.34507664263346     -2.29093149900300
  H   5.14136465827908     -0.48526970810157     -0.94282102671273
