27
Coordinates from ORCA-job 18191optt
  Br  1.06014280659685     -1.29644269064353      1.60547397905257
  C   2.62857647919875     -0.42570793688668      0.91304300070956
  C   3.31439344326584      0.51796621097537      1.74488201288780
  O   2.55512870311645      1.21470050882476      2.71372450014022
  C   1.63343651409228      2.00943587097050      2.09374477050529
  N   0.49267264022763      2.27715766558580      2.55768145182115
  O   2.09496460978026      2.49697577000066      0.93725533391634
  C   1.18179187663675      2.74964304059611     -0.12719719558409
  C   1.95695560115742      2.91868900252708     -1.44400969148414
  N   2.09546287245136      1.75249036679649     -2.32449536375886
  C   3.38369043721840      1.04436279943389     -2.28684019811046
  C   3.66205892519861      0.46166711085836     -0.91743501928969
  N   2.67038664218767     -0.22805578173784     -0.41540669799388
  C   4.77817987001378      0.89387400312825     -0.11756104157065
  C   4.44261339235198      1.09142705696300      1.26131440100424
  C   5.92566458244619      1.47189948791147     -0.68581174007105
  C   6.90682534733510      1.98771740233661     -1.17816179210073
  H   0.34431519065850      1.72516351019227      3.39773572869575
  H   0.62069227156686      3.65779947356727      0.10412969773684
  H   0.47494655207775      1.91638711639395     -0.18259491254706
  H   1.43628437059085      3.70050505103356     -2.00675735791009
  H   2.95031788898133      3.30736848033945     -1.20264410168748
  H   1.38457420615410      1.07111468250065     -2.08017940079073
  H   3.33740355984092      0.26239296323048     -3.04793862042727
  H   4.17684955082536      1.73765087336569     -2.56917058335002
  H   4.90697482348462      1.89985475288905      1.81559992145191
  H   7.78369684254429      2.40596320884729     -1.60638108124546
