21
Coordinates from ORCA-job 18190optt
  Br  0.55755099986945      0.28325351260903     -0.50955486172445
  C   2.80384829057336     -0.02893634544062      0.31502889375210
  C   3.62872638438577      1.09966953664182      0.32375266000239
  O   3.10785844879195      2.31696777214726      0.75740917607473
  C   3.58831164117480      3.47829401125985      0.27437075384929
  N   2.97355464147472      4.56999534300481      0.33857926644325
  O   4.80844339613086      3.44847931085362     -0.31699423291993
  C   5.68062425148474      2.37460569177556     -0.00631691192508
  C   6.33545797326870      2.61329355358609      1.30158354848105
  N   6.86175718500840      2.79228285399294      2.30327382275594
  C   4.94907628252692      1.06641685211443     -0.04968316466330
  N   5.59472185312504     -0.03666794120085     -0.46934394473804
  C   4.83465280315167     -1.09213524857990     -0.46080893236895
  C   3.49167715524876     -1.14032386677569     -0.08861156188832
  O   3.03771923282154     -2.43041439541332     -0.26921008964080
  C   4.20565194830597     -3.20320351580613     -0.44335997002768
  O   5.24843939352098     -2.33276199831695     -0.86511996518210
  H   2.04290420974742      4.39767818239876      0.70941999960681
  H   6.45919240727676      2.38265534771618     -0.76774633449997
  H   4.03663319680660     -3.95935944324035     -1.20739771494406
  H   4.49219830530545     -3.65878921332655      0.51372956355715
