10
Coordinates from ORCA-job 181optt
  C   -2.97930520815442     -0.18337353177770     -0.00000015181320
  C   -2.43431443249841      1.08826953433435      0.00000035599980
  C   -1.00112466129399      1.14847432135936     -0.00000008613695
  C   -0.35142478289332     -0.07324361445372      0.00000002189045
  N   -0.91405134775624     -1.27875265665287      0.00000078492858
  N   -2.31720324965883     -1.33763200810815      0.00000014634242
  H   -0.44390699053018      2.07667509465599     -0.00000037475379
  H   0.73908047010773     -0.09568486927020     -0.00000047563258
  H   -3.06675407967201      1.96692591842583      0.00000067053240
  H   -4.06399571765032     -0.29765818851290     -0.00000089135713
