23
Coordinates from ORCA-job 18206optt
  Br  1.41592128818576      0.27815101895475     -0.44784285490566
  C   3.23341412513893      0.12693544528886      0.03419557673387
  C   3.84765573263833     -1.09259967174153      0.02033262988190
  O   3.13156228967091     -2.21657495486560     -0.32243402636326
  C   3.73553269536565     -3.42572156064798     -0.37613285520596
  N   3.09417183412835     -4.47127782256122     -0.67112908856552
  O   5.04579549337594     -3.51837339454992     -0.13302307250632
  N   5.83415408542292     -2.44206452757388      0.34651952681004
  C   5.20084315727195     -1.26885640450353      0.36196789053718
  C   5.94316278813944     -0.10086417630814      0.75077216240812
  N   7.25857768535552     -0.32885454086387      1.13468445893910
  C   8.18115963003729      0.76467888728503      1.27495743743739
  C   8.47444508529261      1.51224548495489      0.03768472652641
  C   8.70642371237412      2.11420196675492     -0.97178264594617
  C   5.34264741607377      1.12610945760582      0.75318546442963
  C   3.95249454198960      1.33287174182907      0.40619739816265
  O   3.42673429693276      2.45788560257351      0.42291455329153
  H   2.12773554647814     -4.21716351442008     -0.85292995989530
  H   7.63379390973886     -1.19439462446110      0.77359759847005
  H   9.11679677507836      0.37111627783412      1.67456720980731
  H   7.79347173309063      1.46811364661982      2.01672317426295
  H   8.88318520883805      2.65040211634072     -1.87237066395060
  H   5.89232096938197      2.02403354645535      1.00134535964067
