21
Coordinates from ORCA-job 18200optt
  Br  0.25656142689415      0.06731650422240      0.52645965661735
  C   2.00894839186728     -0.32223074914737     -0.04572459822929
  C   2.88681903822839     -1.02438104362964      0.78893393541559
  O   2.36722566420725     -1.86445821873188      1.73274897570152
  C   1.45635576246207     -2.79425746465935      1.26315185778441
  N   0.78332805321209     -3.44085980111405      2.09547303152488
  O   1.48375865449477     -2.85358448739870     -0.08275642923753
  C   0.33112756477945     -3.34582177195854     -0.78228279955052
  O   -0.09915919817907     -4.44925687616373     -0.44905125534964
  C   -0.20692330184301     -2.50555030650728     -1.77850198018812
  C   0.03792868830388     -1.27045515688490     -2.39537305643967
  S   1.39477925385588     -0.25561845214682     -2.75008033795707
  C   2.44236991369939     -0.12578978209966     -1.34450103661886
  C   3.83702858572371     -0.09768164840438     -1.53540466885708
  C   4.65588737250077     -0.45183889036692     -0.48982330086237
  N   4.18441232319645     -1.03010618432263      0.62793451343766
  H   0.22344857141038     -4.12424737806813      1.58771865974544
  H   -1.15283217358831     -2.93113701093305     -2.10094423092950
  H   -0.81738222477116     -0.85918387809641     -2.91813333347495
  H   4.24291461418580      0.11770662573307     -2.51640770606794
  H   5.73440301935984     -0.39256402932203     -0.58043589646428
