22
Coordinates from ORCA-job 18209opt
  Br  0.74814633343627     -0.27776462022371      0.70939205849422
  C   2.99012282444034      0.03699319915748     -0.20972013241204
  C   3.73515371107033      1.16881447133497     -0.14727403561383
  O   3.20922736924316      2.45305477658649     -0.23668738683723
  C   4.13870733138881      3.41739107175154     -0.13112310651339
  N   3.92999073678634      4.65759778636186     -0.15127135672366
  S   5.77777179405758      2.74364288269244      0.04131182427521
  C   5.12866960241313      1.12088221187958      0.01302533567406
  C   5.79478660192620     -0.06885497161979      0.12645770255784
  C   7.26002579600089     -0.26981536159537      0.32942934583721
  C   7.56656832113560     -1.04497831382995      1.60088427909707
  O   8.67189110116259     -1.44177900466490      1.85369225002237
  C   7.90458424785309     -0.99158696767401     -0.86259247056761
  O   7.77989572645124     -0.61181305412797     -1.99044937788991
  C   5.03695132074744     -1.28756268812999      0.05598680960610
  O   5.55603050813582     -2.40791381126297      0.13487888523850
  N   3.67119733278802     -1.12779037798149     -0.10258639070123
  H   2.93371642039003      4.84126479881270     -0.25571279420516
  H   7.78054676365583      0.69103646535918      0.41670702981958
  H   6.72122662465786     -1.20765165254208      2.29065355996877
  H   8.50821311979145     -1.87806478814870     -0.60735746909460
  H   3.13257641246745     -1.98610205213533     -0.10864456003231
