24
Coordinates from ORCA-job 18214optt
  Br  1.83067570730060     -1.76638990712508      1.98443344359190
  C   3.29434416622927     -1.50079107313884      0.81889647792940
  C   4.56958696411086     -1.89747321934149      1.18790661453001
  O   4.76117951879491     -2.80820859592315      2.19895113437912
  C   4.17507105182265     -4.02868154176487      2.24974314599527
  N   4.22361877040037     -4.72206714749113      3.30300687241734
  S   3.20520711287401     -4.75922566623402      0.93424309425612
  C   3.78282011624346     -4.14202936318370     -0.61120156021796
  C   3.00723727408962     -3.54787890949616     -1.52319394819332
  S   1.40607922109460     -2.80200159204021     -1.27654460804322
  C   2.03526121944940     -1.15807354725968     -1.29435926218143
  C   3.10505315047220     -0.90553763110377     -0.44712550309242
  N   4.21603506456171     -0.20322756985618     -0.91673214042120
  C   5.52057370889278     -0.34930647887303     -0.46856500185864
  N   6.51995200025480      0.29114460661846     -0.95871069441027
  C   5.74404161187297     -1.39543675351819      0.56828815955504
  N   6.94062471806077     -1.82831252201713      0.86958170250388
  H   4.67924298245957     -4.18035649912616      4.03702974830661
  H   4.81150708835839     -4.37701064594893     -0.86400445281498
  H   3.45692872645241     -3.31538644674091     -2.48477201402136
  H   1.96750712036410     -0.61486488274439     -2.23068154157746
  H   4.12031430684143      0.18094398210546     -1.84502870270836
  H   6.22226046697862      0.94533177721284     -1.67950202085125
  H   7.60287793202038     -1.28816037300968      0.31234105692716
