22
Coordinates from ORCA-job 18213optt
  Br  1.27699293758925     -0.89553683567550     -1.85930068774577
  C   2.19881864281692      0.32123934384910     -0.64133127581863
  C   3.15177513198479      1.18670864026093     -1.26925007278202
  O   2.77463673224187      2.14933343179217     -2.24081949800304
  C   1.80978541053787      3.05833469923685     -1.96133370792343
  N   1.17552168082222      3.64456614197555     -2.87649432039516
  S   1.46843174601290      3.42629382090273     -0.23088349170717
  C   -0.10384705583156      2.66419366055191     -0.21327830866730
  C   -0.74261610437074      2.09733191444191      0.81129823561245
  C   -0.43739165975773      1.94670079338383      2.25647329527595
  N   -1.36928832204914      2.03720115731180      3.12763676456183
  S   1.16129371428694      1.65741179492252      2.95529518262089
  C   2.29299319083020      1.10949543121957      1.70169267493226
  S   3.88277897771386      1.59028302436304      1.94396080608233
  C   4.45003811788570      1.03451674676969     -1.08273696309104
  O   5.58546860431988      0.86540114408562     -0.94276604689325
  C   1.76577456379993      0.32195676582018      0.66084753090756
  H   1.45136147520266      3.25349177679325     -3.77918486937624
  H   -0.59693419540360      2.68985427951190     -1.17797105720163
  H   -1.73901215610375      1.73166349242108      0.57708200191563
  H   -2.25032208591672      2.27610825692062      2.67254530262821
  H   0.87074065338822     -0.25254948085879      0.87951850506757
