21
Coordinates from ORCA-job 18217optt
  Br  1.13343718460954     -1.98136150794774     -0.58485164277965
  C   2.93363642609670     -1.41379039338610     -0.49526073101591
  C   3.74076982811452     -1.94548050953551      0.44555727876972
  O   3.24897844864436     -2.95854140865320      1.24282343962573
  C   3.82214804584351     -4.23248969982519      1.19557124303148
  N   4.74734500021453     -4.57295564178351      1.96933977187055
  S   2.99560630327805     -5.45732660632418      0.18456634410518
  C   3.16154873690032     -4.82045876276053     -1.56298160019768
  O   2.23427884591834     -5.00836715725771     -2.31215924215062
  C   4.38954093300203     -4.10960583437943     -1.75116088463129
  N   4.39806214731814     -2.97918471892506     -2.45667635767722
  C   5.35304096325096     -2.13090277354766     -2.10353587943796
  C   5.10522118585992     -0.78852595945638     -1.79563080983425
  S   5.92841748140847     -0.31320073516609     -0.31340136145382
  C   5.07197988263928     -1.39359510914181      0.83051490104772
  N   5.53593508406365     -1.65520566637205      1.98785226961933
  S   3.40993546423649     -0.31576395037766     -1.77316565574850
  H   5.02495422378253     -3.75269353112445      2.51717465994765
  H   5.18403404936600     -4.31592946561396     -1.03207560846771
  H   6.32500482480690     -2.52043610712376     -1.77635723308016
  H   6.44912494064571     -1.22118446129796      2.11785709845742
