20
Coordinates from ORCA-job 18215optt
  Br  0.91669790781066     -0.35211599965711     -2.25839881961485
  C   2.11906056149624      0.17877102589516     -0.82083294338243
  C   2.99143738868074      1.19057083902293     -1.08215170175295
  O   2.82853499782756      2.04726534195768     -2.15547353039887
  C   1.86314106111461      3.01426356443586     -2.12794910614275
  N   1.48924185944366      3.59041716739066     -3.18042886664929
  S   1.29805260473637      3.71169042369419     -0.56983964946577
  C   0.72145174820959      2.32204092362975      0.37067445355844
  N   0.93349647579629      2.29132725429780      1.60981009276708
  C   0.53115267848818      1.19226206999268      2.40962396220075
  N   -0.53792037208759      1.10740222599322      3.07085860599781
  O   1.48598202682745      0.23716840033171      2.54130167072960
  C   2.37103394485643      0.20888585660443      1.45841333247560
  N   1.87065638307901     -0.35360627722828      0.35490698504109
  C   3.53501756024214      1.01037883686848      1.61514538446944
  O   4.03895442036936      1.43248193689337      2.63409324478887
  S   4.31732844818049      1.48530860940317      0.01173896155850
  H   1.99084273893560      3.19201178368639     -3.97602867427350
  H   0.16985388430124      1.56371271169164     -0.18518820266313
  H   -1.09901631830805      1.93876330509623      2.91072480075636
