22
Coordinates from ORCA-job 18218optt
  Br  1.02598430969310     -0.38991572345112     -0.27723752779928
  C   2.91076963700551     -0.16129168067419     -0.14011590120146
  C   3.67593857297619     -1.33090474701855     -0.17017219131208
  O   3.18154631382075     -2.42931922525446      0.58190477800005
  C   3.49243712653784     -3.66459131876839      0.18808782126602
  N   2.81955610646828     -4.69507132458746      0.46335531864737
  S   5.00214850704955     -3.86178656470680     -0.72146008728184
  C   5.87684942070697     -2.32745218690954     -0.37516093765308
  O   7.09187882711830     -2.33329447166078     -0.40137264280877
  N   5.10111561317793     -1.24942980648483     -0.12295925716799
  C   5.68098153699240      0.01648918587085      0.06828218666144
  C   6.99313877752391      0.38072024381701      0.24167112717998
  N   6.99653689177945      1.74635912208234      0.37357576766128
  C   5.72576052068121      2.24223861063474      0.27237032081403
  C   4.87176649382282      1.18481694500217      0.07869923500310
  C   3.41173772068839      1.16037761397471     -0.12459494964013
  N   2.67580466301005      2.23380157204712     -0.26891749418332
  H   1.96336224402178     -4.41173439357538      0.93998935151699
  H   7.88847653968518     -0.20983304418240      0.26328686206930
  H   7.82257457250627      2.30086361039621      0.49689036117824
  H   5.52704930854393      3.29761134121973      0.34684257081294
  H   3.27058629619013      3.05734624222901     -0.21296471176278
