21
Coordinates from ORCA-job 18220optt
  Br  1.16236079432341     -0.26989696807990     -1.97416875434234
  C   2.64243050377636      0.14311527912444     -0.85027587462503
  C   3.37183133844099      1.24632874422092     -1.04491772054540
  O   2.97748422604868      2.19612772243364     -1.97566203813037
  C   1.86377331176664      2.93100530280265     -1.67483621104376
  N   1.10321722989739      3.31597948766274     -2.58803565320943
  S   1.73953259677234      3.28939351698746      0.09772919498486
  C   -0.01725576100229      3.02704414458086      0.43430241786128
  O   -0.89657396932609      3.34154007019657     -0.30659643007441
  S   -0.32396967252083      2.30259124702125      2.08332303814135
  C   0.85475329157638      0.99807409685483      2.05587784579982
  N   2.10836724165209      1.28561131889316      2.23669982753818
  C   3.12320590958970      0.66086585766718      1.64481289623241
  S   2.86336425918118     -0.79846705555404      0.60693737488258
  C   4.24137113447220      1.43331419737483      1.25423310463543
  C   4.50694620897928      1.63631872775539     -0.13924989003406
  N   5.48251733274640      2.30424853979275     -0.67813526392299
  H   0.36150518051756      3.89834513237115     -2.20884850759402
  H   0.52833645888326      0.11612962624337      1.50850029524356
  H   4.62619284498395      2.18269671757170      1.93894626574337
  H   6.14760953924131      2.55763429407900      0.05336408245899
