25
Coordinates from ORCA-job 18223optt
  Br  1.39135018990710      0.37633713727299     -1.84563305043447
  C   2.09813618584990     -0.77078420308582     -0.53512210590384
  C   2.97774943206238     -1.73692997819676     -0.87178119596240
  O   3.71081147326260     -2.32176472491998      0.10095509470996
  C   3.77861812010454     -1.47526181247513      1.23403988841121
  O   2.51927724145160     -1.23767451035976      1.76550544512986
  C   1.59146821493678     -0.75362878989980      0.84057370755596
  C   0.35865351328869     -0.49442807705219      1.28561979460076
  C   -0.87954545537971     -0.22459461321879      0.49724485479820
  N   -1.65448738130201      0.79777925577770      0.77869620617096
  C   -1.21890178221822     -1.11022741176931     -0.57018530462848
  N   -0.50114058997237     -2.19953845978948     -0.81141955552009
  C   -0.40544391217208     -2.80495480790825     -2.02718362974219
  N   -1.18100131363566     -2.90174445129749     -3.05040977161898
  C   1.04078168541259     -3.19968920512550     -2.01981415753694
  C   1.96991984949633     -2.57441280335543     -2.73129307024443
  O   3.20080513055535     -2.27118920056334     -2.08202110285794
  H   4.35798650855339     -1.99895763850624      1.98807421770359
  H   4.25311343360064     -0.53776232249333      0.92264788650504
  H   0.23946475568620     -0.53507420316163      2.36449559291939
  H   -1.22741240234457      1.34561547885839      1.52375793566760
  H   -2.02582847266613     -0.76858901142149     -1.22460441869620
  H   -2.06874318527603     -2.44666227192360     -2.83350120713341
  H   1.35649975536760     -3.60884353077888     -1.06634436955880
  H   1.83486900543106     -2.04701984460684     -3.66229768433435
