23
Coordinates from ORCA-job 18229optt
  Br  3.82302193689332     -2.70005080749318      1.84666354008756
  C   4.26697635408185     -1.55621194416743      0.39893643464329
  C   5.16818086343724     -0.41024507925396      0.53445010000986
  O   4.90828525190817      0.49705565700688     -0.46735195278173
  C   5.78553866855716      0.80220560678939     -1.54447768079597
  O   5.33531969790255      1.61264411490750     -2.32795031179045
  C   3.62295049576655     -1.78888745944135     -0.72220158494313
  N   3.09192383302911     -2.07868405844284     -1.77711125533300
  C   7.09642689070617      0.22302595263093     -1.61163595024786
  N   7.49736965861610     -0.64681699056968     -0.71114050027442
  C   8.71781433098949     -0.94437354740148     -0.33085719454124
  C   8.94359378181052     -1.54083354262824      0.91790957221057
  N   8.01946947880854     -1.85641811836631      1.90478107949410
  C   6.84712125296341     -1.37658844911214      2.11633251972723
  C   6.18114118529638     -0.26728429062724      1.39133422090844
  C   10.28049286747450     -1.93549756827648      1.22419691973424
  C   11.42178427696289     -2.23966973616460      1.47182109268521
  H   2.20619179688445     -1.60578230854933     -1.96063685353075
  H   7.75070849670717      0.68544695525851     -2.35618596482733
  H   9.59932797659867     -0.69229500933428     -0.93291722088117
  H   6.31511738034610     -1.83063755593383      2.94879580268784
  H   6.74745669193841      0.65233365225608      1.28627142442400
  H   12.42178683232111     -2.51743547308691      1.69597376333471
