23
Coordinates from ORCA-job 18230optt
  Br  2.32017504117224      1.12802931468035     -3.35236745402910
  C   3.29940276373906      2.30166887242495     -2.26172524427294
  C   3.27763922634388      2.21198803038902     -0.89804898145740
  O   4.31362645043565      2.81172274234669     -0.22037889697081
  C   5.39377357912491      3.04435684269501     -1.08281750680109
  O   5.01658797027262      3.93399478333870     -2.09110178734700
  C   3.89292496830912      3.54926282753161     -2.78920490040586
  N   3.47541951560597      4.37876072282222     -3.63884552683434
  C   2.23684831056082      4.34690713832494     -4.31452245098459
  O   2.21542311345851      4.45102872870248     -5.52899813365500
  C   1.02256620210261      4.13832747194427     -3.52871831463749
  C   1.01013905147928      3.89393428653978     -2.18955415958276
  C   0.09009010790536      3.02706697271975     -1.51123162282548
  C   -1.28389008403447      2.94411009368183     -1.97747708001096
  O   -2.14024314923701      2.18077864479694     -1.55545828929195
  C   0.46576125071456      2.13661640326920     -0.50653988307289
  S   1.99676604315886      1.80625448024950      0.20527274281241
  H   6.17707233704117      3.52673128586140     -0.50650016946965
  H   5.72463414545870      2.09287921834633     -1.51374501747770
  H   0.18938833647853      3.82903100104005     -4.14975670046392
  H   1.86005086231742      4.23253710303443     -1.61021265941161
  H   -1.54895519272484      3.69105885782895     -2.74834914250779
  H   -0.28720084968301      1.43395417743155     -0.17371882130203
