22
Coordinates from ORCA-job 18237optt
  Br  0.78950886021355     -1.06750075529737      0.43981523690586
  C   2.60338681474741     -0.59206906153147      0.32560423003124
  C   3.01321705875392      0.72249634717231      0.19715795880787
  O   2.23351141058556      1.84548490114256      0.30279993300784
  C   3.08757612319139      2.89369558880256     -0.14265544056931
  O   4.41088732668104      2.49219162845048      0.10033811839631
  C   4.32686749046779      1.10637201559983      0.02773271493266
  C   5.34297979435647      0.16658249294377     -0.00647572281996
  N   4.89733837227588     -1.17128312691319      0.10694977194395
  C   6.01211992509481     -2.11829563329183      0.07058175682736
  C   7.19178551821183     -1.20500534776369     -0.08297966338879
  C   8.53198525246244     -1.28896723415163     -0.20150834662603
  S   9.16063343991999      0.32731768086065     -0.35764416032705
  N   7.68631668900879      1.10322501541669     -0.27764431702963
  C   6.74556416059169      0.15866555431397     -0.12624871497650
  C   3.59998535233012     -1.62993870787848      0.27020133201729
  O   3.39403328831914     -2.84269353068824      0.34811430113141
  H   2.86568749254539      3.79910255374244      0.41772118038427
  H   2.93206617066893      3.03018905029392     -1.22226937247932
  H   5.88393061852374     -2.81578612330791     -0.75988790531513
  H   6.02696034632161     -2.70802964867385      0.98983485208328
  H   9.17265849472846     -2.15675365924153     -0.20953774293763
