23
Coordinates from ORCA-job 18231optt
  Br  4.12401551560690     -1.31996743771451      2.73903266513618
  C   5.04505450710488     -1.02645343340573      1.08335838187660
  C   6.34195041347882     -0.80618517101509      1.28971234903868
  O   4.81492817480758      1.29223306350749     -1.55597863079714
  C   5.41609405919711      0.24369859572714     -1.53913481823414
  O   4.66414308490138     -0.94971578967654     -1.33687575787008
  C   4.22928204129749     -1.32763261149401     -0.11878988044885
  O   3.20975926876511     -1.95414766445264     -0.03175699877163
  C   6.80296034648491      0.01032148969418     -1.67063359365439
  C   7.38547591423629     -1.23625807472556     -1.41762012260265
  C   8.55843098514601     -1.32472308004087     -0.70297717872218
  C   9.01789844866270     -2.43706841914436      0.04458660863065
  C   9.13948938611198     -3.76380899228513     -0.47580892925690
  O   9.48898272774223     -4.75501050922235      0.15920583923887
  C   9.28019700810713     -2.16669041670176      1.43409656479921
  C   8.58360781812346     -1.25788143838059      2.15160178846326
  N   7.42969559214349     -0.58173295014763      1.73192223549936
  H   7.41565033115999      0.90330095913246     -1.66559341600148
  H   6.78288565646911     -2.12995225414570     -1.54350632076480
  H   8.97835117341608     -0.36736879038424     -0.39820864525578
  H   8.91151884312399     -3.85383095007998     -1.55592878655126
  H   10.05691331460004     -2.71665359798413      1.95595872915722
  H   8.88471538931302     -0.96747252706041      3.14933791709126
