26
Coordinates from ORCA-job 18235optt
  Br  0.79461139194309      0.45926954808409      1.88821530774970
  C   2.71717394075922     -0.06045343873769      0.25727393448888
  C   3.39002042609016     -1.20908035342969      0.61986140774211
  O   2.89607839512193     -2.38140956628414      1.15967192517473
  C   3.97059898736477     -3.28358454847555      1.11171303451403
  O   5.18022757571032     -2.52019044134077      1.03679502654545
  C   4.76898333546045     -1.31142037230328      0.55617439622760
  C   5.48815109902115     -0.24248639198868      0.07588964699424
  C   4.72540020641835      0.87815834141803     -0.27803183242911
  N   3.41273155365760      0.98544579969400     -0.19306364994036
  C   5.71055798227539      1.97467826959023     -0.61888299064447
  C   6.34709921121204      2.40040822403455      0.73237544600652
  C   7.20896393706357      1.17186263845735      1.13398855325435
  C   6.93845621374428      0.16894763719679     -0.03333012593179
  C   6.85686610110456      1.15407278434629     -1.23013884622034
  C   7.93524826614322     -0.88352089563193     -0.15976944355312
  N   8.75660547808135     -1.67673786677237     -0.27369958140426
  H   3.90427322805221     -3.90560229322674      0.20884531366740
  H   3.98665549559264     -3.89040545938285      2.01464729422038
  H   5.30288773677655      2.78898737408256     -1.21103283992463
  H   5.57942219653592      2.62912238080277      1.46908304504726
  H   6.97391174415696      3.28365641630273      0.60084576848353
  H   6.91789974730170      0.73657564916659      2.08734169923022
  H   8.27076128347213      1.41865196813345      1.17259102985013
  H   6.58715996287510      0.64849614519083     -2.15580218772026
  H   7.78425450406510      1.71655845107343     -1.35356133142819
