26
Coordinates from ORCA-job 18238optt
  Br  0.74817750507500      0.95404208078856      0.48162928590162
  C   2.60750800644040      0.60340738708984      0.24623983939111
  C   3.07658595956943     -0.69787944268567      0.18225311390079
  O   2.40621505446603     -1.88790134371889      0.36468422673922
  C   3.34650351939176     -2.85361621359244     -0.08281944964938
  O   4.63559948863778     -2.29896493815752      0.07015329769296
  C   4.41195404237735     -0.93943312502717      0.00377743431672
  C   5.36264223943345      0.09116253663213     -0.10304832068441
  N   6.67654130242427     -0.13412910525704     -0.25811495035062
  C   7.49265952164124      0.92045740064214     -0.24317555943098
  C   7.04720699246504      2.26065061224998      0.25754240299765
  C   5.64753742652534      2.57789897816978     -0.27687067471493
  C   4.73938327096628      1.39494331990118     -0.07468932086306
  N   3.44661331330213      1.61395840304237      0.09984414845990
  N   8.88155741018581      0.72137786330992     -0.28487619324728
  C   9.60136752176193     -0.41820889064102     -0.53332869825863
  N   9.20422285874337     -1.61651474474813     -0.71821739073571
  H   3.16426741339075     -3.05807419778654     -1.14757769681964
  H   3.26139804394041     -3.75431414261961      0.52116111791609
  H   7.75477714184481      3.04443475892458     -0.03047496976260
  H   7.00807643752542      2.25774144671565      1.36098294343295
  H   5.72130207237533      2.80307673636055     -1.34626618188468
  H   5.21353980326766      3.45066111405617      0.21401624678831
  H   9.42755936502645      1.56302071725981     -0.22196001048724
  H   10.67249183868951     -0.20350500587856     -0.57027231401275
  H   8.18631245053295     -1.64829220503008     -0.64859232663539
