19
Coordinates from ORCA-job 18248optt
  Br  0.88361619594185      0.08798240424516      1.01792670166649
  C   2.76596557056040      0.04699940695516     -0.33101579229914
  C   3.50246251016677      1.18921595255577     -0.36294450996242
  O   3.02514776172600      2.49979386926375     -0.56809300168051
  C   4.10559621726138      3.31487100123772     -0.27276266601287
  O   5.29870802237021      2.56636202354695     -0.37902862250305
  C   4.88927505509621      1.24806227840455     -0.25662021899905
  C   5.67573314979295      0.15240196626519     -0.09020054254978
  C   4.95566977593870     -1.06505454357825     -0.06201277487159
  N   5.38251164620425     -2.32005603477339      0.04881852469538
  C   4.23484938823118     -3.02482476470697     -0.01984297263142
  N   3.12463825986078     -2.33420177486807     -0.16788005012861
  N   3.57326562833213     -1.05735564213169     -0.19076268216092
  C   4.16353449051062      4.44312370165331     -1.23531787889854
  N   4.22132319502304      5.31001522179349     -1.97828501876307
  C   4.00311724285826      3.86845679949499      1.11990034331944
  N   3.94565655808628      4.31928488773194      2.16983466496753
  H   6.74856513771739      0.17428936989793      0.00534211871226
  H   4.20836419432150     -4.10236612298760      0.03794437809983
