24
Coordinates from ORCA-job 18249optt
  Br  1.32532367125810      0.54332817953768     -1.15449640604036
  C   3.16235489094196      0.16541222698470      0.19169581680663
  C   3.61871148200460     -1.11023728326454      0.25657261059250
  O   2.92710324206571     -2.29038882917939      0.52103045441237
  C   3.83200916083359     -3.29258640798212      0.15565804795193
  O   5.15474844890982     -2.74893491805878      0.29582438198390
  C   4.97718331535185     -1.40908942518022      0.15411657062983
  C   5.93447639159678     -0.45940836510082     -0.03444005022561
  C   7.40658031503940     -0.69000292165941     -0.15998194392443
  C   7.98048180828623      0.03640501098095     -1.37037498904257
  O   7.59726347389667     -0.18050237885100     -2.48752018610165
  C   9.15732478674627      0.97826982433077     -1.12212010220262
  C   8.94768482024589      1.98131798637370     -0.01001248598783
  O   9.41587196283855      1.83698368915852      1.08946541814751
  C   5.46142433620333      0.88665439456826     -0.13267583563377
  O   6.18572387555281      1.85117299861176     -0.32823805709371
  O   4.11295659323919      1.11516381346278      0.00486061917260
  H   3.69302056212942     -3.57250747062172     -0.89585967509507
  H   3.73131199403271     -4.14801591858146      0.81979831879623
  H   7.59776763959961     -1.75599901320196     -0.30433044592133
  H   7.93590396829627     -0.36588932132600      0.73994747409041
  H   9.36304828890919      1.48961922551708     -2.06216102498671
  H   10.01069634029045      0.35494619445463     -0.83823226495709
  H   8.35502863173136      2.86928870902661     -0.26752624537114
