21
Coordinates from ORCA-job 18245optt
  Br  1.19799733153221     -0.17719797940225     -0.08736949914145
  C   3.08423618131115     -0.20431905178340      0.02222786691074
  C   3.78305009903807     -1.42120693505583      0.00507315408516
  O   3.30217662004199     -2.69170825739927      0.34827412763706
  C   4.39840546771584     -3.50117440131962      0.05335848097686
  O   5.56889748820024     -2.75325380519958      0.25554051162134
  C   5.15906611218620     -1.43623410819492      0.04049395234140
  C   5.93973204893228     -0.31114845103679      0.02271951067469
  C   5.25393564085908      0.94490970563856     -0.01328003118778
  C   3.83443385934052      0.95928359740603     -0.01090583769908
  O   3.13932902090818      2.13269444200789     -0.06673419100683
  C   3.82658875781431      3.30565098376206     -0.11931171930428
  C   5.15964292693862      3.37540046107804     -0.11691619693831
  C   5.99265441514063      2.17540707074292     -0.06315154232306
  O   7.24165763395076      2.23322786372628     -0.07210400555900
  C   4.33192635496676     -3.97158780962054     -1.37466710406450
  N   4.27530325917055     -4.45573211871038     -2.41211549223259
  H   4.40016497800016     -4.37657913632671      0.70006984593961
  H   7.01860167408728     -0.32261572585553      0.01603257597871
  H   3.15252995276914      4.14830683731220     -0.16933523389187
  H   5.64667017709592      4.33987681823082     -0.16589917281681
