26
Coordinates from ORCA-job 18243optt
  Br  0.79996364483126     -0.00444247800767     -0.08988212270924
  C   2.71822024537382     -0.04225022548380      0.02725184882550
  C   3.37996187265227      1.18954512774153      0.01068413274093
  O   2.91034496506340      2.43333905744737      0.46259437035086
  C   3.98396542918387      3.26905231915676      0.13255346339238
  O   5.17688494014730      2.51403037649636      0.29554700975414
  C   4.77999999507830      1.20711699692726      0.07472418122729
  C   5.55702203551029      0.09544740841527      0.04449241971198
  C   4.86935235757810     -1.17188761521929     -0.03497924886503
  C   3.43425167447432     -1.21646682381258     -0.04403965702832
  C   2.78249576887210     -2.55496627514386     -0.28830034155223
  C   3.56946978808032     -3.69531964250327      0.35013352024450
  N   4.94922635354907     -3.60347749848183     -0.04822675015912
  C   5.91577717435641     -4.59147116702901     -0.08443380065512
  C   7.09981767798239     -3.92445112155646     -0.22343995034797
  N   6.91844044063550     -2.57116785553539     -0.24752138139495
  C   5.59677924206647     -2.38746777780760     -0.12172695436254
  H   4.00397834853272      4.12747510866860      0.80166381783265
  H   3.90709542121409      3.57469921303863     -0.92194611133846
  H   6.63627847897903      0.12811642853916      0.06764538133024
  H   2.72802446321840     -2.73657152531074     -1.36908557565477
  H   1.76250615771438     -2.56365433982677      0.09277048140013
  H   3.17070225503604     -4.66251964730496      0.03724502695359
  H   3.49127894137387     -3.63026265948811      1.44332133728979
  H   5.66691424962635     -5.63857841807088     -0.05065873227358
  H   8.08224807886984     -4.36086696584866     -0.32638636471265
