25
Coordinates from ORCA-job 18258optt
  Br  1.22700030632856     -0.05599132479826      0.98574610051255
  C   2.87998903860321      0.08895877724904      0.08019501954314
  C   3.79543910123122     -0.97305556833323      0.15588795289662
  O   3.61276327179846     -2.12959248381832      0.90875543972459
  C   4.70689062722330     -2.88706886738312      0.74422809627233
  O   5.57778170304448     -2.28951187054842     -0.09815947199423
  C   5.02115912665236     -1.05671691084459     -0.46283056624433
  C   5.61313660867684     -0.12704167969120     -1.26629230141016
  S   4.75011407041970      1.36907430299981     -1.56189022292848
  C   3.12994710303054      1.25696345806492     -0.65513584632834
  O   2.43335739210852      2.24788350558302     -0.80189326113463
  N   4.87605086784650     -3.99711609765665      1.31684210217805
  C   6.11532375987844     -4.69340935884912      1.03477766145825
  C   6.34843010666951     -5.72303010194153      2.12683285254396
  N   5.20172089046110     -6.60070600022590      2.22766248998504
  C   5.26901393910147     -7.86233335642225      2.72167570185225
  N   4.32801780182610     -8.65563251093438      3.05280515377318
  H   6.57487936330546     -0.26122218672179     -1.73420535518842
  H   6.97351987498750     -4.01454319583482      0.99018508597837
  H   6.05128189839888     -5.20694269150414      0.06831995769354
  H   6.52976285421494     -5.19992823645020      3.07276417466580
  H   7.22987732216595     -6.32440602710805      1.89498285684558
  H   4.30925252075508     -6.12430654637958      2.19365037857328
  H   6.29497505180118     -8.22605541303412      2.80985464791849
  H   3.41731539947057     -8.20926961541705      2.93724135281356
