23
Coordinates from ORCA-job 18255optt
  Br  0.62226676006732      0.04890326727547     -0.30004266431366
  C   3.12628080995201     -0.00266442977643      0.22704720030408
  C   3.79015528507008     -1.19133922984357      0.21125440860577
  O   3.36381809160012     -2.44992986436345      0.57331103169467
  C   4.36803611745603     -3.32206578506159      0.10187888964349
  O   5.56845080612587     -2.56789143674523     -0.03145345696272
  C   5.12639600700367     -1.27059880863222     -0.15653094881361
  C   5.80716961674410     -0.14023605712417     -0.52631476415884
  N   5.17528314955505      1.04428957771499     -0.53221211725822
  C   3.89245382499559      1.10077828331144     -0.17606808620429
  C   3.25065142616387      2.46998750388385     -0.22893647106573
  C   2.71293345027359      2.90996981040761      1.08583101643917
  C   2.04606023568488      2.32238692730100      2.06726022178445
  O   1.79863509083485      3.26311592054440      3.06148384437254
  C   2.32204248139435      4.43278129077154      2.65310157309045
  O   2.29349282668110      5.46216533514789      3.25569216605151
  O   2.89084764126193      4.24604138500675      1.44491530706530
  H   4.07926341969723     -3.71261078600485     -0.88251356867494
  H   4.52486361007368     -4.12401852185383      0.82047020661974
  H   6.85028118643635     -0.16168683311849     -0.81748605186698
  H   2.42553516078725      2.44015742257658     -0.94769749942593
  H   3.99155356646588      3.19473103766578     -0.56224665182398
  H   1.65752943567505      1.32773399091649      2.18425641489772
