24
Coordinates from ORCA-job 18263optt
  Br  1.06731609000001     -0.86835149103524     -0.06668085405449
  C   2.93342132923831     -0.53028930762866      0.02592875333338
  C   3.83310303548615     -1.59171246923939     -0.07149927251398
  O   3.65414943362519     -2.91075746017346     -0.49938899103461
  C   4.92809964571916     -3.46209342178208     -0.24031635932780
  O   5.88779444823618     -2.44541255477151     -0.38362808726575
  C   5.18810789739131     -1.27596808034411     -0.08164796374500
  N   5.75067222939892     -0.13483730394742      0.08114883904802
  C   4.85939805272111      0.92031582515062      0.27379582774525
  C   5.38853365755341      2.21746215844022      0.51439963806813
  O   4.71762692038846      3.24980149770809      0.69738310166704
  C   3.44448047951182      0.72166817474633      0.22372974123962
  C   4.99310031357428     -4.05387899296919      1.18049124453004
  N   6.06472905331244     -4.15907770137972      1.84989385270526
  N   3.78184448703941     -4.55351121622242      1.59822680157267
  C   3.52590801570856     -5.27378783970012      2.75818877558126
  N   4.33656299303701     -5.67455377095198      3.63784673155510
  H   5.12112047741473     -4.24917901402481     -0.96975459857874
  H   6.49255298495333      2.25200025057013      0.53237782320305
  H   2.80863610258288      1.58439092170828      0.36235480294052
  H   6.81675639049043     -3.69261026789018      1.34563108907694
  H   2.99075281443310     -4.24513629773622      1.05156925075154
  H   2.46417661908764     -5.50325119237562      2.85500842453940
  H   5.28215652909608     -5.36223044615151      3.41594142896313
