19
Coordinates from ORCA-job 18268optt
  Br  1.01098757329764     -0.01575332644518      0.71064626876327
  C   2.69177124842166      0.01408029634289     -0.14146452449552
  C   3.35644132358819     -1.15300639417069     -0.41716662789475
  O   3.23147033043588     -2.38454625884528      0.14280601231104
  C   4.59449271594319     -2.94461820384554      0.28934980639317
  O   4.73396460058350     -3.91925258516638      0.96651754223754
  C   5.43768902935662     -2.08815826876638     -0.51226988907997
  C   4.60643492350917     -1.09218089399307     -1.03675892962490
  C   5.31357477321984      0.09148455347743     -1.02957008628988
  C   6.56823271108299     -0.14497410484153     -0.53913970039518
  N   6.79940917905267      0.94758503890329      0.32348801013635
  C   5.75268595251526      1.86979152793377      0.24837724545848
  O   5.72027600289083      2.96921372493219      0.74707166575869
  N   4.76944907106417      1.27858300304529     -0.59055186200606
  C   3.34035459916057      1.32882441301442     -0.30304476842203
  N   2.74622891793011      2.43224280263545     -0.09355727708904
  O   6.69233895339771     -1.50441115807665     -0.19780158996890
  H   7.69821416408565      1.29021508723863      0.62000957539484
  H   3.40898393046434      3.20188074662735     -0.14994087118713
