20
Coordinates from ORCA-job 18265optt
  Br  0.94526825420840     -0.13177527751382     -0.02637828141316
  C   2.81721525147400     -0.16390224814618      0.03876559013659
  C   3.53599977349990     -1.36433567540692      0.05867757473312
  O   3.11242989658611     -2.64573323143816      0.36574747819494
  C   4.26597887317940     -3.42893912898219      0.12629944099682
  O   5.39847864776257     -2.58840950358958      0.28971921222877
  C   4.90924158914569     -1.32054531639264      0.06930084692834
  N   5.69222787287041     -0.28420102023259     -0.00066031405795
  N   4.95874013394511      0.90357480869223     -0.06408737083862
  C   5.73207363411126      2.07797479815937     -0.12003500649820
  N   7.00289069335870      2.09119754385819     -0.12836733837735
  N   5.01991182201972      3.28330051668227     -0.17512705365142
  N   3.74689001025139      3.29398852134417     -0.16590270564068
  N   2.98973894686006      2.21166682148491     -0.09812564181457
  C   3.57804884943428      1.00598827979167     -0.03864351161207
  C   4.24239766572392     -4.00635065827197     -1.23487578557094
  C   4.22911024418464     -4.53260831857211     -2.30915186943686
  H   4.31345887315751     -4.22208520918578      0.87015275824894
  H   7.34261056821647      1.13407628880942     -0.08592223760599
  H   4.21228840001037     -4.97588199109029     -3.27538578494971
