18
Coordinates from ORCA-job 18272opt
  Br  0.93431984861829      0.01397472024003     -0.13719597353392
  C   2.81080143409552      0.04836728736320     -0.27774732167219
  C   3.53004205129657      1.19138256300504     -0.18615125715449
  O   2.98524935447548      2.42308650538586     -0.09757645510682
  C   4.03336427735462      3.39029179125411     -0.01727137252408
  O   3.73995031175520      4.54815829116800      0.04353074925477
  C   5.26926370124024      2.65199638755237     -0.03848238440076
  C   4.95008105273707      1.26870982277533     -0.11899992189302
  C   5.74870199225138      0.12489495666987      0.11632529083218
  N   7.05144176668128      0.23961044532859      0.61062076984453
  C   7.79743778960771      1.24021940880083      0.42748744304861
  O   7.64520343781130      2.36056170791980     -0.30791762738941
  C   6.53356518196728      3.27268331606245     -0.17092492451118
  O   6.82502278605214      4.43159789374093     -0.23469030306836
  C   5.21314134408815     -1.13339180381153     -0.00249822702950
  Br  6.20540583535285     -2.68654026190749      0.40518910305329
  S   3.59293441440130     -1.49515486654019     -0.53665228135644
  H   8.78907342021332      1.21155183499272      0.87595469360677
