31
Coordinates from ORCA-job 18277opt
  Br  1.74107469945517      1.44081284421056     -2.22542753411673
  C   3.42040825121571     -0.04576396264083     -0.99677230975959
  C   3.35710448247244     -1.39775209112500     -0.96202045711161
  O   2.85221092426619     -2.12302823270880     -2.02399186714784
  C   1.48757956979287     -2.41070651507997     -1.82986224956186
  O   1.31597229224172     -3.36309125720347     -0.81513754976425
  C   0.51846314459972     -3.10978639122648      0.33283363291235
  C   0.89785620400724     -4.17590191448682      1.37394627453721
  C   0.75646157050411     -3.48530320803074      2.73163391907028
  C   1.30030340167219     -2.07179445331828      2.47317886937388
  C   0.69124635730275     -1.76226758515644      1.08320257663316
  C   2.86373391697884     -2.00630013692548      2.61915811852014
  C   3.49189711729635     -1.29302237364970      1.46344779027024
  C   3.55443225555347      0.05175698493309      1.36311492791281
  N   3.67881380251809      0.65195264945960      0.13790273816201
  C   3.69039327065389     -2.11986565410973      0.25954048923741
  O   3.96901516054919     -3.31373123437256      0.33216318479437
  H   1.15111276473316     -2.84110847275727     -2.77435309446788
  H   0.93927101867801     -1.48700437557326     -1.61492201236280
  H   -0.53418268933998     -3.21112023575334      0.04073844404240
  H   1.94512830468113     -4.42372203680519      1.18370285645044
  H   0.30417677362326     -5.08600500715030      1.28369514222896
  H   1.29002750632805     -4.00583510702588      3.52962076466380
  H   -0.29843923677435     -3.42760137818857      3.01977485685812
  H   0.88731873278102     -1.36168941061191      3.19275198973102
  H   -0.30608640451945     -1.34935192233230      1.25040137985900
  H   1.23378139150001     -1.01543622815170      0.50809044769712
  H   3.27049961446001     -3.01765660640927      2.66073444074997
  H   3.09860989972674     -1.51411652446970      3.56597846770995
  H   3.42488892255028      0.71455948966891      2.21188512887025
  H   3.64292698049210      1.65688034699087      0.06699063400769
