19
Coordinates from ORCA-job 18271optt
  Br  0.87957609102182      0.30870802607711      0.20097226205822
  C   2.72257676936992     -0.05575454182890      0.12063522635104
  C   3.22828720425505     -1.31632100051369      0.16371029301277
  O   2.73720988810509     -2.58181114967632      0.26499732066989
  C   3.87073965125612     -3.51688222771521      0.25917649523271
  O   3.62472404188246     -4.68016655117457      0.34273563035359
  C   5.07372801894630     -2.70405579866808      0.14639192681314
  C   4.60640747107302     -1.42192860815803      0.09495333337031
  C   5.62160197702712     -0.49608760119720     -0.00993157452769
  N   6.82457778109159     -1.20121291808732     -0.03063020123267
  C   6.49853238361000     -2.49016745357645      0.06170651980712
  C   5.13433177018641      0.80600098951367     -0.05384543833090
  S   5.93646887366292      2.31944858401249     -0.17153757257202
  C   4.33385798753667      3.17398856249793     -0.13130399086371
  N   4.21190681255413      4.44853900255393     -0.18381860654025
  N   3.30087230942603      2.30034455590642     -0.03762820450692
  C   3.68596341371030      1.03619237763901      0.00805833433637
  H   7.27633956754139     -3.24060540383863      0.06591448547728
  H   5.12329798774362      4.89477115623384     -0.24755623890830
