29
Coordinates from ORCA-job 18278optt
  Br  2.54018856236963     -1.70488883723400     -1.51266634695754
  C   2.58210186505925     -0.24633400240668     -0.27944480186239
  C   2.99381930710087      1.03276152702480     -0.73266964851720
  O   2.58994125769394      1.51047980874555     -1.98697824663629
  C   1.26114191543944      1.97060279449089     -1.99704631063800
  O   1.10859588449295      3.17714283628288     -1.29066731280492
  C   0.29939715951723      3.30169445894201     -0.11944515109717
  C   -0.06745921678925      2.02284007469900      0.65838894591667
  C   0.02775128668712      2.41371985880917      2.14136162792026
  C   1.16676213059348      3.44128782982855      2.23739986532469
  C   1.00907115494006      4.22133996296171      0.90854896100134
  N   2.47833558259132      2.80421033177054      2.48695267407636
  C   2.78337979286613      1.79698688801273      1.53309638480937
  O   2.40948262915368      0.56004422215808      1.96291528809959
  C   2.39387720038159     -0.56125557725395      1.07463936523094
  O   2.17606269438580     -1.62803183749719      1.61860758955942
  C   3.15486540021507      2.03415022317616      0.26094823007828
  H   0.59334439528723      1.19603812612367     -1.60892121461380
  H   1.03822699313049      2.17384851137266     -3.04612824060412
  H   -0.62567231377432      3.79144119395822     -0.44370823697597
  H   0.62886770931658      1.21716385441619      0.44238261320528
  H   -1.06271188225406      1.66130581651340      0.39544201856337
  H   0.19798253427632      1.55536203570677      2.78866169860505
  H   -0.89739015280376      2.90711756594110      2.45358822296237
  H   1.00355314020019      4.11061126880027      3.08523722737698
  H   1.95467856050901      4.58248215573571      0.50695590593799
  H   0.38277602938687      5.09650014739421      1.09876660759009
  H   3.20165300110676      3.51225837026827      2.48876431985796
  H   3.36137737892033      3.04512039125924     -0.05698203540863
