24
Coordinates from ORCA-job 18282optt
  Br  1.31160405919487     -0.19717708243770     -1.08631046256753
  C   2.99208017258867     -0.50792035076470     -0.21222871304281
  C   3.81904187162854     -1.50263224555517     -0.66710543067486
  O   3.38430504596008     -2.18847328909386     -1.78783095940750
  C   3.74563541735829     -3.37038430382403     -2.29748476316878
  O   3.12558876545064     -3.79233092503862     -3.23845211690765
  C   4.87189284240409     -4.22500233266338     -1.71276540151843
  C   4.30895770411581     -5.18121402058047     -0.65466112272683
  C   4.05998504145663     -4.46142073589517      0.66930593357214
  C   5.32817372466036     -3.73545463498906      1.06497925481006
  O   5.78320687135548     -3.77627397434014      2.19440926042362
  C   5.92522978960463     -2.86874431708414     -0.02258107305011
  O   6.00939510470726     -3.52736009128741     -1.28716860745146
  C   5.08228900917259     -1.63615525637573     -0.03046095705584
  N   5.45237064982085     -0.67181636490534      0.87776233874636
  C   4.56773139401723      0.22727067953404      1.20795579582201
  N   3.30089449859634      0.35047151021444      0.76614323672142
  H   5.19414720029101     -4.81397872249318     -2.57082158051154
  H   5.04794910495257     -5.97123278668633     -0.50082517650240
  H   3.40016871547343     -5.64178803520319     -1.04750789315053
  H   3.79887063689744     -5.15690135745177      1.46622376552695
  H   3.23776127730259     -3.74195255955338      0.56922518062359
  H   6.93654930639715     -2.59261178922531      0.26894863319142
  H   4.88217179659336      0.97608298569967      1.93025085829871
