23
Coordinates from ORCA-job 18281optt
  Br  1.16932907279156     -0.08633755754248     -0.02474063590704
  C   3.06168613196325      0.02908596087616      0.03124449704318
  C   3.71032076970713      1.24125002396765     -0.05905390448188
  O   3.25135091550244      2.50669967402274     -0.19626806282853
  C   4.39042568588591      3.39646043618043     -0.26299916222097
  O   4.19444002532638      4.58378087183671     -0.39300637174025
  C   5.55429145585253      2.56871901308947     -0.15226064663109
  C   6.95821968193881      2.71955108607373     -0.16664334142098
  C   7.72201838529432      1.56027789032031     -0.05606130266827
  C   9.22229246255457      1.66307868708322     -0.09114344420937
  C   9.92487678620776      1.56542966094912      1.23906951518509
  O   9.42040749411383      1.61356314263859      2.32376401863285
  N   7.27353471862904      0.29368223267878      0.06429871799731
  C   5.91814954216985      0.12982454488007      0.08400133410320
  C   5.23295323158512     -1.10155702447710      0.18704627253737
  C   3.84423422765442     -1.13190719816513      0.16030701334520
  C   5.09921200262759      1.24919819923832     -0.02628944419467
  H   7.43839249679288      3.68398432783883     -0.26585088500557
  H   9.55469459374214      2.60925586578841     -0.53497257920480
  H   9.63132898642130      0.86448593564723     -0.71848598116301
  H   11.02948422101960      1.46136370743429      1.15003540314843
  H   5.79438573408162     -2.02188745719665      0.28313348913454
  H   3.32997137813783     -2.08100202316272      0.23887550054924
