24
Coordinates from ORCA-job 18292optt
  Br  0.44217866327543     -0.40999146957998      0.86862132883394
  C   2.28052663009083     -0.15892204965300      0.52892823263545
  C   3.21654276956242     -0.71802013775425      1.32997268525727
  O   2.82885322133704     -1.50341846813506      2.37456687806806
  C   3.32379777584532     -1.15885479458545      3.64644718074341
  O   4.36444265639005     -2.00410960482009      4.02645546422492
  C   5.40313849347130     -1.99414683193002      3.13334407106376
  C   5.45253366414082     -1.39569902119429      1.88949045300136
  N   6.68573292172172     -1.67731926069329      1.36847047995807
  C   7.40451601196000     -2.44913355927071      2.23525767968060
  C   6.63046503377762     -2.66519725549899      3.34709228842074
  N   4.57065152670503     -0.59768021074630      1.15491033991732
  C   5.15132523090428      0.24256930535954      0.13699684543037
  C   4.29918580243052      1.04377788229609     -0.66193254411248
  S   2.73836603774449      0.55324037623187     -1.02976087712677
  O   1.90781471669860      1.71067931383822     -1.29662888617151
  O   2.62415798447138     -0.53968427102635     -1.97683711775843
  H   2.52371194427707     -1.31667303149951      4.36550492862450
  H   3.65370606773830     -0.11435408757307      3.63865305493635
  H   6.92418548565372     -1.39024089758700      0.43068431334114
  H   8.40663488290950     -2.76345318163205      2.00311665748300
  H   6.89833065920500     -3.22611069429289      4.22644846355063
  H   6.06737407707596      0.70332428757907      0.49287243805081
  H   4.52082774261346      2.06641766216753     -0.92267435805255
