25
Coordinates from ORCA-job 18291optt
  Br  1.34474922529657      0.54231048690520      0.64264161089769
  C   3.12360659253156      0.07259839376006      0.15033615375328
  C   3.55940250618198     -1.22171466907990      0.24229527048470
  O   2.70557732217943     -2.19276151019842      0.73966020353845
  C   3.13513621512006     -3.45294129453062      0.93098863926178
  O   2.32639863192547     -4.32783894144798      1.08770910429146
  C   4.63545006764268     -3.66630900411112      1.06732784473444
  C   5.03714026452853     -5.13155010709345      0.84600001996952
  N   5.75170758502034     -5.11695236305175     -0.43216821230462
  C   5.59721277974596     -3.84006880058777     -1.11466793541679
  C   5.45463632485774     -2.85133894505510      0.05400342970002
  C   4.83572008437454     -1.53958877517005     -0.23074151127734
  N   5.62101603387199     -0.54120887591555     -0.79314086820526
  C   5.08482552409853      0.65788493788017     -0.82377595312325
  N   3.89051686906299      1.06456937476046     -0.38335390547008
  C   6.64488954677741     -6.06273655933383     -0.75041425361238
  O   6.86611088191373     -7.07068898718530     -0.10381397368689
  H   4.87197496982062     -3.33984088593464      2.08337928210687
  H   4.16031007256089     -5.77746967514311      0.80797011345599
  H   5.70981677494751     -5.50871627951791      1.61586670166867
  H   4.68654930555344     -3.82716643058871     -1.72173753983183
  H   6.45385013401516     -3.62626289502951     -1.75202546803625
  H   6.46424352805045     -2.70163701555848      0.46263467841502
  H   5.69886535399829      1.44067737887429     -1.26587139049327
  H   7.18429340592403     -5.83724855764694     -1.68610204081994
