21
Coordinates from ORCA-job 18301optt
  Br  1.22870031939240      0.19235193491869      0.09486536629787
  C   3.08655309801389     -0.32298141345704      0.49115988459608
  C   3.70488246073676     -1.27879547672679     -0.32130015541891
  O   2.90958804209471     -2.31484373567662     -0.82168526512946
  C   3.04121811100970     -3.59383337517968     -0.41845763238527
  O   2.09579913134614     -4.33306698370418     -0.44061215767814
  C   4.39908902414779     -4.05352519083869     -0.06812941984565
  C   4.68648627814968     -5.17641267189533      0.63336160870795
  O   6.01464142713376     -5.35991261689959      0.70102342009548
  C   6.59482525363352     -4.33356081352304      0.01292530948201
  C   5.65771687421860     -3.49844818550346     -0.48427262228295
  C   5.80174815898691     -2.24248268015414     -1.27752648239786
  C   5.04094326815217     -1.12405720797306     -0.60525463365008
  N   5.75072582543024     -0.03016609193077     -0.26839080295135
  C   5.15863575933889      0.94534108167925      0.43264876188547
  O   5.61419719574422      2.01626572256676      0.74691424077756
  O   3.83197485074494      0.70367147226855      0.93014861962589
  H   4.06092553189420     -5.90351557130836      1.12104483153404
  H   7.66993263897848     -4.33604933557401     -0.02515893853876
  H   5.40595998637345     -2.40375789698418     -2.28612870348017
  H   6.84445676447943     -1.94322096410427     -1.36217522924374
