21
Coordinates from ORCA-job 18305optt
  Br  0.90937960949807     -0.14485992616848     -1.34743146209230
  C   2.91843175399590     -0.17703347241762      0.03391979276987
  C   3.57708903815173     -1.31562539510988      0.40471625152509
  O   2.80101915287179     -2.38236763573743      0.88158892948434
  C   2.87408945554893     -3.62778979135362      0.38699972530251
  O   1.93960191396302     -4.37543083075067      0.45549649238628
  C   4.19025438123623     -4.06675431215868     -0.08346188243834
  C   5.40488137009354     -3.51378014442573      0.18561522561433
  O   6.38701954977833     -4.32850652265481     -0.16977804558155
  N   5.83126938227064     -5.49519649427538     -0.69469190409091
  C   4.54689499769786     -5.32574850345198     -0.63211813761605
  O   5.77996574853972     -2.37513718569757      0.73374285326173
  C   4.98524893871195     -1.25062745127801      0.44773044115749
  C   5.68283979156206     -0.11272545622214      0.18857243771011
  C   4.99412406995662      1.10726016960175     -0.14232503149223
  N   5.47685125985685      2.27980164217378     -0.37718899431092
  N   3.61322963014505      0.93728535205599     -0.23290753420444
  H   3.88262623080010     -6.10531865192895     -0.97100763831661
  H   6.76241040159638     -0.13573250312259      0.19160281636368
  H   6.48707434980517      2.26139582119124     -0.28268602115836
  H   3.09669897391980      1.74889129173087     -0.55038831427375
