24
Coordinates from ORCA-job 18300optt
  Br  1.14382620364542      0.03148227117409      0.75318137463033
  C   3.04703806448912     -0.03628215286189      0.54990145291581
  C   3.61851992599720     -1.21125974646437      0.06250876144137
  O   2.93161685121644     -2.16240282972761     -0.68239520922885
  C   3.73278262706586     -3.23642724532012     -1.08819497325579
  O   4.94989143608910     -2.86750345093186     -1.71732141315924
  C   5.79503373443963     -2.23542080984342     -0.75598292881659
  C   6.91395254466969     -1.35821118932768     -1.35779013744737
  O   7.01699806970081     -0.21467182793911     -0.49824664586966
  C   5.75402807433998     -0.03428520496168      0.03449726705381
  C   5.01004092924706     -1.16241845168558     -0.08579228294060
  C   5.21593987856022      1.15885524096390      0.56431641034399
  C   5.96983576388920      2.34382349919686      0.77105488683713
  O   5.52089015404010      3.41772261065465      1.21275681386122
  C   3.80439834674152      1.07421247509716      0.85614847186366
  C   6.35119877292459     -3.24138530069093      0.17243138807864
  C   6.83962824330606     -4.02553244490076      0.93768308571388
  H   3.15965387376262     -3.78847721008473     -1.82763626725808
  H   3.96793809709971     -3.86525627191345     -0.21877509140348
  H   6.59096216032395     -1.03908224631401     -2.35289068910026
  H   7.88459243086314     -1.84679293749390     -1.39845036434859
  H   7.04066982735665      2.26001805596869      0.51243772307666
  H   3.34109722035890      1.94719811789361      1.29426211083051
  H   7.25946676987293     -4.71390295048783      1.63029625618153
