25
Coordinates from ORCA-job 18311optt
  Br  3.41205362590382     -0.80115447592338      2.63536521562235
  C   3.25267255427373      0.04648908066076      0.95932300851966
  C   3.02818583883245      1.40132070373200      0.85082701690534
  O   2.77899534318045      2.17871688501071      1.97276363498392
  C   1.40479738702982      2.35517990534217      2.20691383033811
  O   0.79784162444413      3.45118279185965      1.53808163810105
  C   0.53637451936731      3.40327141708888      0.20731527852033
  N   0.67641873506902      4.42328462252466     -0.53809588372834
  C   0.44940810965618      3.92442893724194     -1.91729608887084
  C   0.52062549971553      2.40959679206799     -1.80247643123690
  N   0.11683054703827      2.23597286143813     -0.41352253689163
  N   1.48642169186353      1.55598521378686     -2.30453662150505
  C   2.42221150909291      1.20670082748556     -1.42752208535264
  N   2.87481367126361     -0.10019444655197     -1.39595950621764
  C   3.32768056716975     -0.76317175950737     -0.23766597491681
  N   3.69108055137398     -1.99940140315921     -0.23902450769529
  C   2.87681573925353      2.02547812189313     -0.37908192228375
  H   1.30980380482743      2.60620064307505      3.25913888127096
  H   0.87383291547043      1.42409394346453      1.98869837694050
  H   1.21428194499815      4.31399884629847     -2.59027845831547
  H   -0.52878199728602      4.26951761386631     -2.27164905665511
  H   0.36732245109385      1.35097987152938      0.00316009475615
  H   2.48876401530999     -0.69191996214767     -2.11843400703386
  H   3.62707846945632     -2.38632886175437     -1.17782164473316
  H   2.69447088160152      3.08477183067748     -0.41422225052184
