22
Coordinates from ORCA-job 18314optt
  Br  1.51401339083978      1.55052042382312      0.59441424769126
  C   2.91353808151563      0.32993019092323      0.21368494663629
  C   2.66859535244197     -0.99479710803266      0.35122501285675
  O   1.45612002088876     -1.47951790790827      0.74693932805466
  C   1.33938129490042     -2.84478874856534      0.48564987006712
  O   2.36395730843238     -3.53571252894391      1.14087195010793
  C   3.61716385019623     -3.18996627755649      0.71775248670152
  N   4.52690122156676     -4.05007888291236      0.96577492095102
  C   5.79652197049125     -4.12279130281806      0.46121522786783
  O   6.70957948363827     -4.64429288214798      1.06349334070853
  C   5.96199228827714     -3.65404317080691     -0.98152771706430
  N   6.44378500459613     -4.45727006574763     -1.85864855351987
  N   5.65441517147635     -2.36854995921712     -1.25062065303216
  C   4.89378587286275     -1.52687795082055     -0.58190276902859
  C   5.09392936513754     -0.14642607584709     -0.64172908186134
  C   4.16518937250345      0.79852980893766     -0.21974640666721
  N   3.69554818865836     -1.95240690798060      0.15111805781305
  H   1.39135029511707     -3.03295319640870     -0.59244495311382
  H   0.39623305846087     -3.18187634372853      0.90302500813799
  H   6.69982120392866     -5.32367336117205     -1.38967174403663
  H   6.01388636191039      0.15901004222521     -1.11893859848224
  H   4.36129184215976      1.85803220470505     -0.27293392078780
