20
Coordinates from ORCA-job 18316optt
  Br  1.02925910370425      0.19851727475560     -0.06367072730875
  C   2.91003594735198      0.07380733274659     -0.06134703254069
  C   3.67835121747274      1.19561581682592     -0.06032744150214
  O   3.02107172146854      2.40605046135508     -0.06038909117359
  C   3.60976529400508      3.63229122575165     -0.05995117738753
  O   2.92513906312036      4.62195932231834     -0.05994432459839
  C   5.05406233808365      3.59113277917219     -0.05960249028925
  N   5.86420383814484      4.62387224571473     -0.05968461006668
  N   7.08934537499765      4.04138159851116     -0.05938021574179
  C   7.09795594157373      2.67731073224610     -0.05910223373712
  O   8.05720499129224      1.92942785624030     -0.05888601461881
  N   5.72469549157541      2.38074278531644     -0.05924171383837
  C   5.10308235604514      1.13600714348388     -0.05932923905986
  C   5.83157397723648     -0.04950736961494     -0.05859857137170
  C   5.27916557450821     -1.35574908060595     -0.05881403651144
  N   5.88833418310232     -2.49207105914402     -0.05784021131731
  S   3.50012124693069     -1.56687732342695     -0.06085856456654
  H   7.92139993949448      4.60325780011113     -0.05948850106975
  H   6.90949397144622      0.01759699154779     -0.05777514088208
  H   6.89473842844597     -2.33176653330504     -0.05676866241821
