18
Coordinates from ORCA-job 18318optt
  Br  1.37132314657367      0.30915213497083     -0.04206202305488
  C   3.24677652109080      0.16899572595606     -0.03439898896931
  C   4.09531135242815      1.26298545651916     -0.03018185759200
  O   3.91050050041768      2.59703954623498     -0.02992565989701
  C   5.24977592146375      3.25692438302305     -0.02565944929198
  O   5.27365280239724      4.46240120433918     -0.02460186526592
  C   6.20226298216384      2.18285127761969     -0.02371345137681
  N   7.54974408156253      1.99712614810893     -0.02087425685530
  S   7.83069260091983      0.31795021085973     -0.02133897566604
  C   6.13673851865131     -0.18660279284591     -0.02551897855893
  C   5.27317303231638     -1.27764649879239     -0.02893981801311
  C   3.89013492096673     -1.07603392786346     -0.03314987575310
  O   3.26229617107198     -2.30501392992414     -0.03565965827962
  C   4.21318869235940     -3.28825490513447     -0.03304375322809
  O   3.96239216184257     -4.46338426643156     -0.03406601625141
  N   5.42991112316394     -2.66777071930852     -0.02925479635977
  C   5.45365599045911      1.00711579824195     -0.02609587597848
  H   6.29046948015103     -3.18383484557309     -0.02651469960823
