21
Coordinates from ORCA-job 18324optt
  Br  1.72842176324649     -1.28150909988692      0.40564411933656
  C   3.57092232438166     -2.18314487445515      0.41859887119020
  C   4.41683759040337     -1.76094391086928      1.55664019006738
  O   5.17111703124612     -0.66811258882171      1.57712650479701
  C   6.07169574940450     -0.65041765892005      0.42863868990874
  O   7.05844939059407      0.01802361096481      0.56516900067380
  C   5.67709874010965     -1.49619863166401     -0.66094429814619
  C   4.35229317350683     -1.99307661658208     -0.77079270162237
  Br  3.71722483059509     -2.61219534120522     -2.44335742534520
  C   6.79191331914587     -2.19283076924516     -1.34556572588227
  N   7.76229364046724     -1.72792374070127     -1.99961954845060
  O   6.78736095620608     -3.58459169452932     -1.16412595137057
  C   6.11264604387644     -3.99133996556947     -0.03199605497095
  C   4.95248002394542     -4.62018523990940     -0.13967930491056
  O   4.03103245831174     -4.71211794086221      0.88122885153429
  C   3.50854270184429     -3.49014476122729      1.34410038246053
  N   4.40630524820790     -2.79184481974847      2.30819072837592
  H   7.63302073139912     -0.72328136734740     -2.08718021895637
  H   6.49066853116610     -3.62570726335630      0.91620602848502
  H   4.59457283069803     -4.97446226181947     -1.09809478074897
  H   2.52210292124391     -3.70399506424460      1.74681264357462
