23
Coordinates from ORCA-job 18327optt
  Br  1.31583492773763     -1.39803756248771      0.04351260571023
  C   3.17999845647447     -1.04646340146765      0.05775197154931
  C   3.90478085242162     -1.28450493045790      1.17670403820344
  O   5.19462937844533     -0.86214613976685      1.14909576408698
  C   5.92359551151996     -0.76230006340078     -0.01259539474524
  O   7.02440616951844     -0.29787088419864      0.02808093608463
  C   5.20106030837521     -1.28100942814032     -1.19628803837483
  C   3.85928889641484     -1.03382446350946     -1.21283316088868
  C   5.85580808334695     -2.44825511589465     -1.76638932231274
  C   5.11621561934907     -3.57663407478716     -1.58151808024592
  N   5.52420574696303     -4.82857829298691     -1.14349074120931
  C   4.73127371044442     -4.95819015703858      0.13506113988865
  O   3.77720632228677     -5.72420014382472      0.18526878661255
  C   5.12394586963848     -3.95627403775972      1.11723721717469
  O   6.24551472481869     -3.39555881960990      1.05638486006687
  C   4.08911462935169     -3.53439623823700      2.11548133287763
  C   3.56809761663771     -2.29640836900347      2.20226656858397
  H   3.26929566854573     -1.28562224261867     -2.08502126413915
  H   6.93542867036985     -2.49439844867199     -1.69528030851290
  H   4.03621740165574     -3.48004909059345     -1.55403976266465
  H   6.51405726041924     -4.79885426501409     -0.91501151157122
  H   3.67711116761008     -4.29771486501662      2.76926009762837
  H   2.77791300765491     -2.08970896551366      2.91336226619732
