25
Coordinates from ORCA-job 18333optt
  Br  2.33060372038242     -2.20425921083141     -1.34172451540572
  C   3.84795802861036     -2.24396694765360     -0.15461641316591
  C   3.80630230538904     -3.14440512067867      0.92706285075489
  O   4.56504552406826     -3.18109566936522      1.89511925842558
  C   6.61099570296796     -0.87043930447166      0.99585576390181
  O   6.84335286718192     -0.25284703015837      1.94790961235573
  C   6.30621592057385     -1.56221714875205     -0.08311400522294
  C   4.90253544603538     -1.43056236292968     -0.54285533894613
  C   7.36043081019729     -2.33922743503020     -0.79502380753401
  N   8.53642506762105     -1.95072494103414     -1.06707855242547
  O   6.98467298994830     -3.56837004974230     -1.23262671132997
  C   6.44397991235618     -4.43813062276787     -0.23625865301096
  C   5.18843281627335     -5.15170041771008     -0.71354018672445
  C   4.48346842965688     -5.83348463677012      0.48190539615605
  C   3.04526802594545     -5.41639147402403      0.74039030078935
  O   2.15827788812797     -6.22191173671221      0.84626782278926
  O   2.76179723930250     -4.11072986236938      0.85599358963529
  H   4.72511070908571     -0.71916770031335     -1.33916436760728
  H   8.63887485645627     -0.97710041964185     -0.79209961179002
  H   6.21572180083766     -3.87008635155430      0.66401244149795
  H   7.22012232732172     -5.17113637080284      0.00947177777835
  H   5.44720880231876     -5.90065792136349     -1.46342752382336
  H   4.53473919463928     -4.42956067855636     -1.20066250188522
  H   5.03361126750921     -5.61665166790554      1.40195675339144
  H   4.44684834719312     -6.91317491886117      0.36224662139575
