23
Coordinates from ORCA-job 18336optt
  Br  0.92992085043224      0.48358687933760     -2.42501021490964
  C   2.00780820000620      1.84396026407441     -0.45630935717290
  C   3.43273062663537      1.74927060452896     -0.75807934990387
  O   4.35387545992603      1.00945136959486     -0.58085997492701
  C   2.66270208430842     -0.73235040033457      0.90834294233129
  O   3.42571444679109     -1.55667417143237      0.66356635825631
  C   1.73758510161458      0.11991428510698      1.31150817341814
  C   1.23593000310023      1.30057369696921      0.60901235952384
  N   0.07298504839701      1.72089264954732      0.99624884641750
  C   -0.67213621743248      2.72646851699930      0.40912079299410
  C   -2.05079894424566      2.24604836492475      0.05303085317523
  O   -2.95461689494777      2.94959088822312     -0.31655977136711
  C   -0.43519880960133      4.04360373031892      0.27134550619301
  C   0.82785010775490      4.73225332430846      0.50903006410678
  C   1.97460635667132      4.36712944549946     -0.05923634871377
  C   2.08204663627281      3.23543315679420     -1.03389488737689
  O   3.47961829736925      2.98504260794941     -1.37351581700723
  H   1.17896762179362     -0.21664591852781      2.17530848333759
  H   -2.17426169904421      1.15420379282091      0.15945601244832
  H   -1.29610848118655      4.63754946838974     -0.02167776622152
  H   0.80897097177270      5.62108977320921      1.13333867261295
  H   2.89398372143429      4.90683653653884      0.13832868325829
  H   1.48782551217789      3.39277113515905     -1.93449426047341
