26
Coordinates from ORCA-job 18334optt
  Br  0.67484267029771     -0.85814347247019     -1.16501213269597
  C   2.06141909195124      0.45182202445732     -1.09644575322984
  C   2.74908589464238      0.58715580999237      0.14989978829214
  O   3.95862777111665      1.20651203608583      0.14251525741382
  C   4.35292201689147      2.10356457795674     -0.88081935002744
  O   5.39660892028642      2.68960217613588     -0.69349344585814
  C   3.45160607347431      2.20157970317525     -1.96656046969707
  C   2.34073433351070      1.34897193636029     -2.09565983516021
  C   1.32993237511666      1.71686116747024     -3.15229563334294
  O   0.58500242946896      2.85984165082282     -2.72033006065357
  C   -0.35433404727645      2.64311177967702     -1.68009378999711
  C   -0.02345557043873      3.36563985411619     -0.36483754089926
  C   -0.95076585887309      2.84980238043378      0.75773074685893
  N   -0.24257834296728      1.70203300056610      1.33493906464664
  C   0.96732143550787      1.84201112020555      0.96193175179185
  N   1.25639240834475      2.97492272576426      0.21109350061848
  O   1.94959594274269      0.96441148448256      1.26142689484170
  H   3.65337740855747      2.95979722933367     -2.70834289109718
  H   0.65203279559482      0.89054387895829     -3.37705241873734
  H   1.82704968934320      2.03482185015877     -4.06893290174558
  H   -0.46760984505757      1.57674458884225     -1.47331971368443
  H   -1.32292100043425      3.02212742545310     -2.02808917531916
  H   -0.07166138235397      4.44575427416657     -0.50750488348511
  H   -1.92774472416224      2.54061718982580      0.37911820859721
  H   -1.10927512624415      3.62050444278038      1.51990808786103
  H   2.05779464096037      2.96638916524912     -0.41177330529142
