23
Coordinates from ORCA-job 18338optt
  Br  1.31166227992616      0.05622674705159     -2.29115951104062
  C   2.89299904329112     -0.01796960971237     -1.26164202608702
  C   3.39958802236493      1.12801269228488     -0.64184210590434
  O   4.70156860900246      1.07836099222799     -0.24577221635125
  C   5.40741674177520     -0.11327268364275     -0.07712929921686
  O   6.58226867150690     -0.01410799926054      0.18636830943062
  C   4.60953168763156     -1.29601235126583     -0.15222272760477
  C   3.36029093086718     -1.24311644713041     -0.71934913266165
  N   2.52345176164573     -2.36480777851570     -0.66174955133875
  C   1.47431353962225     -2.36088989335970      0.06128923386952
  N   0.96563578987257     -1.42031783577135      0.93617745379205
  C   1.47810014395635     -0.09777030557492      1.02261599025464
  C   0.81738695159268      1.00089939288120      0.63192561571951
  C   1.49745501342948      2.20631903588062      0.17510005996090
  C   0.75248911101231      3.43912028215151      0.12848439685883
  O   -0.40248760720618      3.58182374564608      0.51822271486632
  N   2.76777773927043      2.23352727567732     -0.28358801054506
  H   5.00313605222659     -2.21165752339987      0.25851238389206
  H   0.85509088163449     -3.25652921561459      0.03691787623391
  H   -0.02048217455186     -1.53355171634473      1.11998938119780
  H   2.51967368347650     -0.05962306161117      1.30962517171053
  H   -0.24951713162306      0.96172773205082      0.43188982191354
  H   1.31065025927616      4.28160852535190     -0.31766382894990
