23
Coordinates from ORCA-job 18347optt
  Br  1.04477069191391      0.30678321919224     -0.15970875545464
  C   2.92076260368611      0.14157412718714      0.08329863695287
  C   3.63085376308542      1.34010924405150      0.06575488516202
  O   2.94021348778846      2.52445460367157     -0.01717817117975
  C   3.70153978129607      3.63229797593473      0.36323351002542
  O   4.89523012166991      3.73165131487608     -0.34807676421121
  C   5.76331313807385      2.66361296680238      0.00105325269631
  C   5.01913576782810      1.36296584202346      0.08626087424264
  C   5.69026405311027      0.13421082853664      0.13429661801094
  C   5.00524429709645     -1.05300692179164      0.21729281607368
  C   3.57616158768943     -1.12172872911221      0.19235771063597
  C   2.87644755145182     -2.39511626956242      0.24681447850702
  O   1.64691895881122     -2.51300155943430      0.47924979400635
  C   3.63415965275316     -3.59087660130346     -0.12343587968895
  C   4.96401634387204     -3.75150706966602     -0.08696136604055
  S   6.00599537830522     -2.48250493943619      0.50783325028382
  H   3.91546458637903      3.57007523285252      1.44098625308109
  H   3.10612014041023      4.51248425195819      0.13289311107988
  H   6.26676749417809      2.90529435882238      0.95016727673135
  H   6.52829292375298      2.62228963407646     -0.77721942432185
  H   6.77578313332447      0.11902668070543      0.12566416660197
  H   3.01099895548229     -4.41819869862860     -0.44912240894474
  H   5.46354558804140     -4.65988949175587     -0.39645386424962
