22
Coordinates from ORCA-job 18349optt
  Br  1.16513566501368     -0.06961435422374      0.22328516046968
  C   3.01836404662413      0.10769905873569      0.35734817723011
  C   3.73269499900859      1.22795220621599      0.12759769866727
  O   3.26248647232344      2.44978166248950     -0.15874402184858
  C   4.41210458199966      3.32167088900771     -0.37851469160990
  O   4.18760774548718      4.48708105223225     -0.63698534405272
  C   5.56198171787430      2.52613607098564     -0.21543715429764
  C   5.16135021803396      1.21448093085764      0.10582291284448
  C   5.78801042502618     -0.05383790122744      0.21081528019942
  C   7.25865737049594     -0.18790740563303     -0.01136863731919
  C   8.12825180529719      0.09435556155466      1.18990827459777
  O   7.75866297005266      0.19763248267948      2.32356719739433
  C   5.00255234383668     -1.12316399523422      0.46243743063205
  O   5.49488509997969     -2.39653063312276      0.68116131985138
  C   5.10931512311814     -3.37757161569247     -0.15652065073795
  O   4.46521983674446     -3.25397223291100     -1.14880772989078
  O   3.66031453953664     -1.08015127377665      0.71076962126879
  H   6.55871187196889      2.92494844995937     -0.30220814150770
  H   7.57688544900881      0.49571275284041     -0.80625944406291
  H   7.53264002485282     -1.19368401326616     -0.34850484903741
  H   9.20966837168827      0.18434009745101      0.94822799872432
  H   5.49749932202851     -4.33035778992187      0.22640959248516
