21
Coordinates from ORCA-job 18351optt
  Br  1.06868584979993     -0.15035154215165     -0.41970954692800
  C   2.92343647055291      0.02487274853611     -0.24161991811316
  C   3.57102445514459      1.18852366288954     -0.17668743666482
  O   3.04757664312421      2.42402210250496     -0.22351214387951
  C   4.14700106022688      3.35918742391583     -0.09104486313068
  O   3.88224816280730      4.53738235151598     -0.10466364349026
  C   5.33641984376708      2.60118517316673      0.02838322994639
  C   5.01999067230702      1.24083794994678     -0.02669296663120
  C   5.67768813921189      0.02079356400379      0.00666373729696
  C   4.95669696841161     -1.16152211376388     -0.10633986276801
  O   3.56330866264931     -1.17749901411800     -0.16069583546089
  C   5.53635397069149     -2.48477971382640      0.01407742887255
  O   5.35241137889105     -3.10841248848636      1.39300104438842
  C   6.29011828217368     -2.80896921989118      2.27264634455806
  O   7.30215706785487     -2.19768560921086      2.06568318978596
  C   4.95946071348296     -3.48749981659682     -0.88855000170769
  N   4.55513170025488     -4.25765250540440     -1.63618393768075
  H   6.30514914956081      3.05657677497194      0.13744049502440
  H   6.75122327698498     -0.05396504038183      0.11926214647839
  H   6.61141787639366     -2.42840420904252     -0.14314576987153
  H   6.01949965570880     -3.21164047857775      3.25968830997537
