28
Coordinates from ORCA-job 18355opt
  Br  0.43170266012334     -0.11035004066763     -1.26252756532829
  C   2.86684124478552      0.49942555850093     -0.57553805093183
  C   3.71329613099797      1.38665799024290      0.01328979518641
  O   3.41022288761211      2.60084586553547      0.53972507776620
  C   4.58831338390670      3.16867971259370      1.05556367922380
  O   4.55026773661177      4.26333042057045      1.57006862362648
  C   5.65094272840643      2.23251283730667      0.82699161832797
  C   5.10289797960973      1.14155745620946      0.17901203602538
  C   5.63182777348571     -0.07404523088001     -0.33991797859534
  N   7.00431571253602     -0.32030931044836     -0.17596009924262
  C   7.61083597224287     -1.39262827917506     -0.93265182951040
  C   9.09564617850074     -1.49890294954055     -0.61487499705314
  C   9.33627790908920     -1.87076053800687      0.83830912207063
  C   10.77907377527341     -1.95652735360198      1.23248216684056
  O   11.70978432860054     -1.74964370136173      0.50114542625755
  C   4.76276717640801     -0.93328517626140     -0.95027083473833
  N   3.43258304612567     -0.63744336540730     -1.03174360390852
  H   6.66381475469989      2.40039247818493      1.15176227551145
  H   7.52788807394290      0.54544090185545     -0.23939909225163
  H   7.46207165078602     -1.26926579370983     -2.01550710514152
  H   7.11702129552217     -2.32826753205534     -0.65043134447631
  H   9.59234721514039     -0.55007334338060     -0.83548121580851
  H   9.55925725148611     -2.24103317858868     -1.26728880615715
  H   8.87779960609905     -2.83803554092321      1.07940714603163
  H   8.84828551079340     -1.15784417048683      1.51196608804370
  H   10.96122797097892     -2.23397654022306      2.29027863753771
  H   5.06471551066099     -1.87167084862663     -1.39099313090696
  H   2.79197453557361     -1.28878032765483     -1.46741603839891
