19
Coordinates from ORCA-job 18354optt
  Br  1.13395286571593     -0.07052697815912     -0.43204333920557
  C   2.98666743119722      0.04501448613675     -0.17015651424048
  C   3.67675477339078      1.17786356261579     -0.02764525520300
  O   3.24787116847433      2.44947091952187      0.00244181648998
  C   4.41349522868198      3.29172488070907      0.19725512018366
  O   4.23699234088766      4.48591359907808      0.26445474321020
  C   5.54411889958500      2.44088431549293      0.25911420613665
  C   5.10690440449569      1.11516802404964      0.10628528182515
  C   5.66100145518172     -0.13780403960891     -0.14283714745698
  N   7.06049734244206     -0.23781237763287     -0.31181061901953
  C   7.77917234658861     -1.38081574823609     -0.15539357645831
  N   8.85181434442978     -1.65194567981633     -0.86160292790988
  S   9.46108104695439     -3.03115426291423     -0.26698286567953
  N   8.29157376249329     -3.24164788009745      0.89141241243954
  N   7.45826642157470     -2.28999745625628      0.84843089464662
  N   4.99047737403554     -1.25227765111228     -0.37853147076283
  O   3.60009963184455     -1.17610569002527     -0.10747225884616
  H   6.54360723083485      2.81096302049649      0.40829416842149
  H   7.47265193119180      0.44208495575825     -0.93421266857102
