25
Coordinates from ORCA-job 18353optt
  Br  0.87776363998725     -0.21255379815712      1.62784096910599
  C   2.87993564219393     -0.18726682007514      0.12751672950073
  C   3.61088130615728     -1.34092752125553      0.07218777243450
  O   2.96743893516377     -2.56984696163260      0.15459436651416
  C   3.71569423089363     -3.60581192190704     -0.37629302803373
  O   4.98354311721726     -3.69892867757373      0.21725455194169
  C   5.78137479033553     -2.57443198859687     -0.11748837865132
  C   5.00906732355342     -1.28202393073881     -0.01561609208495
  C   5.65406573821021     -0.07232562119988     -0.03052164443610
  C   4.93220362795558      1.15578058787669      0.02841567051215
  O   5.40750275186964      2.29254096050788      0.02069738118679
  N   3.53065550922038      0.99400355742165      0.10256050373575
  C   2.78380142566518      2.23115752973159      0.12043395929190
  C   2.79992380418275      2.95719945764805     -1.19996333405887
  O   3.12212982665319      2.49525906658844     -2.25600146708449
  C   2.98519183642633     -4.88980422102566     -0.01791802475362
  O   2.89870721319976     -5.82719081759342     -0.75710712711601
  H   3.81915669458904     -3.50417495839486     -1.46718098450332
  H   6.17156715210144     -2.69228991764777     -1.13642946024977
  H   6.62350165736696     -2.57427023589475      0.57339967595017
  H   6.73213344717973     -0.00470388055019     -0.09063637528056
  H   3.19785446893700      2.90319179508344      0.87431075581304
  H   1.74797616770775      2.00309069638779      0.38418875330340
  H   2.43682086591326      4.00389796593726     -1.12879978946937
  H   2.54410882731959     -4.88557034493939      0.99455461643185
