22
Coordinates from ORCA-job 18365optt
  Br  0.96938099098658      0.05827105328424     -0.11838509488904
  C   2.84917541264146      0.04135832415687     -0.00383962180603
  C   3.61341672505558      1.21450069736204     -0.02477041851776
  O   3.19594385008792      2.49325784278102     -0.16127773561148
  C   4.34299008797258      3.31380929069161     -0.21291341799440
  O   4.20458072502671      4.51275775630142     -0.34126965859156
  C   5.49203883914572      2.46876722823395     -0.07630424282594
  C   4.98797079006488      1.14970144026571      0.03205014821695
  N   5.59462667649899     -0.08290790367339      0.17803678263360
  N   4.87905491059927     -1.26906876013758      0.04833398243326
  C   3.57145324092020     -1.15589853338285      0.00729209871772
  C   6.84745135291271      2.94355844482773     -0.05267268783176
  C   7.21207941517870      4.23544164012924     -0.48185546344094
  N   8.46662467235048      4.66664889262949     -0.48903637074594
  C   9.39882965128476      3.81994117321906     -0.06073401058604
  N   9.18614506263025      2.59326639038596      0.39886522873192
  C   7.92580016494024      2.17449851447621      0.40826167529091
  H   6.54828492155969     -0.18878141831575     -0.12448645790325
  H   3.03900340599427     -2.09858972210568     -0.04741399846485
  H   6.44504463060582      4.92056745123997     -0.82008477941231
  H   10.42644539694203      4.16657468084945     -0.08081398242156
  H   7.75765907660110      1.18932551678125      0.83201802501853
