23
Coordinates from ORCA-job 18366optt
  Br  1.00904101197959     -0.28285333611816      1.08092484437206
  C   2.81451899200115     -0.24261642666751      0.48686931972357
  C   3.35677256163127      0.85141835463126     -0.03425842880281
  O   2.82199895798843      2.05436528247282     -0.29059677366137
  C   3.86661907605643      2.85563813070709     -0.89866070157025
  O   3.57262653369981      3.97515228321794     -1.24306551771153
  C   5.04663182122589      2.07566835893244     -0.93364696071141
  C   4.77301167105957      0.82310696590222     -0.37564390903837
  N   5.53117630365107     -0.22135534367048     -0.09459004268160
  N   5.02700817898918     -1.31081393849861      0.44853933379603
  N   3.61023210565999     -1.35874628095424      0.72380456217330
  C   3.09909781301330     -2.66765312613393      0.34661432366162
  C   2.84114978783155     -2.79035080447452     -1.12857945451117
  N   1.89547486222352     -3.59031181538041     -1.59552695448922
  N   1.94797213176324     -3.44322476008743     -2.92520991026619
  C   2.89136421640715     -2.55830333370085     -3.31738013796243
  C   3.50430399513565     -2.11005172238915     -2.17636442368636
  H   5.98702695068224      2.44723624589225     -1.29958071410170
  H   2.17948126523785     -2.88283051345529      0.88989596838522
  H   3.86394110982533     -3.37842728829874      0.65911246430110
  H   1.29369262908352     -3.94170751204288     -3.50021971844480
  H   3.04420098077587     -2.31802590388870     -4.35608045788839
  H   4.30565704407831     -1.39531351599508     -2.08735671088528
