24
Coordinates from ORCA-job 18368optt
  Br  1.03777193756092      0.11274296600955     -0.21090656154470
  C   2.90834046051735      0.10250706483349     -0.00901814446328
  C   3.68875402994329      1.25224690500362     -0.12119171787232
  O   3.28162913392815      2.51908657464769     -0.36461859552210
  C   4.42564102495041      3.34866213262729     -0.40197862902598
  O   4.27022817669761      4.53614160604978     -0.61153638741053
  C   5.57616617811514      2.52585358035868     -0.16725663256406
  C   5.06328651122557      1.22383232060903      0.00445602618674
  O   5.75296094464471      0.07200555952618      0.26991554408491
  C   4.98222670639954     -1.07412843066936      0.35672090209941
  C   3.63476932970905     -1.08694271453298      0.23080928398859
  C   6.94391939189689      2.99032564545448     -0.15772098375959
  C   7.25881233243126      4.35092709309816     -0.34400788138094
  C   8.57338887056248      4.78544521609943     -0.34525645144549
  C   9.62719122457826      3.89558342927338     -0.16339891807882
  C   9.33222147056185      2.54923822422441      0.02004373769573
  C   8.02167194108082      2.10183725229301      0.02438492239361
  H   5.58604849520427     -1.94700305348858      0.54333389893759
  H   3.12456651054071     -2.03634033973966      0.31743736827824
  H   6.44906224119555      5.05221358849046     -0.48849080706351
  H   8.77854392677593      5.84005063000473     -0.49149082049092
  H   10.65293838946321      4.24237035926728     -0.16635472688693
  H   10.13471351379820      1.83362055177964      0.16073527826498
  H   7.81814725821874      1.04972383878027      0.16539029557936
