26
Coordinates from ORCA-job 18363optt
  Br  0.56665136006008     -0.74543256381723     -0.70411344305437
  C   2.95048550215450      0.12638724714595     -0.15527910003247
  C   3.79291979715733      1.14067022486693      0.08499395120584
  O   3.55475948304761      2.48057963570179      0.12596008577922
  C   4.76505033054245      3.12326711000433      0.42217280724839
  O   4.79682106821634      4.32719568312745      0.50864910320809
  C   5.78152170613150      2.11340485338087      0.56853902036153
  C   5.18635125895055      0.89847693961993      0.35969182214154
  N   5.69374935814029     -0.36916019860922      0.39073300272633
  C   4.84312504052933     -1.32704370706961      0.13948598399462
  N   5.28106703579229     -2.63226830576615      0.10364298533077
  C   6.61547873282064     -2.95720537867139      0.54986705152154
  C   6.78420579069469     -2.82304233220116      2.06406713210740
  N   8.16248872423189     -3.03953560030839      2.46670817610845
  C   8.69953758643903     -4.27320341108919      2.52870271004863
  O   8.09391368683499     -5.30015103529537      2.31033116851446
  N   3.53186316283005     -1.12322560287291     -0.12084321418195
  H   6.81015955450647      2.33232716730432      0.79611371137803
  H   4.57502690594367     -3.34261870673421      0.20588360042267
  H   7.31196993321253     -2.28067146081403      0.05566956856102
  H   6.84496707857469     -3.97897647126947      0.24821129640147
  H   6.16046830152304     -3.55820612738605      2.57449503642213
  H   6.48608008027217     -1.82256101252487      2.37018897342932
  H   8.76461805485201     -2.24569306124463      2.60408000498155
  H   9.76476504205961     -4.26625712283665      2.81395250674817
  H   2.90795542448201     -1.89205676264098     -0.33690394137238
