20
Coordinates from ORCA-job 18360optt
  Br  1.01787020095062     -0.26301765469895      0.42209765881779
  C   2.89224635933694     -0.23176021291631      0.27859051485131
  C   3.55772992280466      0.94150241740658      0.14541236610501
  O   3.05160834232837      2.18669531005805      0.07677863890546
  C   4.14877663272641      3.07998896179373     -0.04985603224402
  O   3.93605510440984      4.26095439048188     -0.13115740803164
  C   5.35070234193865      2.29156559136212     -0.05111191614135
  C   4.98687610423009      0.96730944688100      0.06631772791566
  N   5.73163833532704     -0.16229896877907      0.09793959132736
  C   5.08831010334320     -1.28253044646950      0.20788680213391
  O   5.85346038024340     -2.40035233472778      0.30975848340878
  C   5.54614235091887     -3.43371409782645     -0.58633799024841
  N   6.28264369169742     -3.52908415304285     -1.60910965021893
  N   4.56044027338405     -4.29355773210352     -0.18537192643115
  C   3.49717467960179     -3.82554702646332      0.40850607687842
  N   3.00753904302324     -2.59145195412714      0.56661017147294
  C   3.64780533586466     -1.44673649246978      0.32577410755109
  H   6.33753690576579      2.71060281085195     -0.13923068534867
  H   5.98011620232932     -4.35031154403179     -2.12946303413182
  H   2.81932768977560     -4.59125631117888      0.78296650342826
