22
Coordinates from ORCA-job 18361optt
  Br  1.20935788648596      0.03184341771422      0.99588645024254
  C   2.89863086818406     -0.01930387113399     -0.05684209517924
  C   3.70507850806242      1.12304815647752     -0.02541916134180
  O   3.29023146510041      2.41290619214076     -0.09757527572149
  C   4.42653993906554      3.25458846820415     -0.09167190838247
  O   4.27446975245657      4.45992742237549     -0.14107222029217
  C   5.57214301787164      2.41191852875966     -0.02135179805368
  C   5.09588802511314      1.10626332456179      0.02841951245577
  N   5.74570238875778     -0.11333639166803      0.09999795188737
  C   5.01421639568684     -1.26879082642060      0.08078348481043
  C   3.65569742847494     -1.25351363211028      0.03513666541904
  C   3.00231979060163     -2.55213804393810      0.01478541807065
  N   3.37366685893757     -3.61762789810510      0.62220718660367
  N   2.50655508950866     -4.59445790844823      0.14731933574374
  C   1.51239109167125     -4.03044872078647     -0.62422201955901
  N   0.47510034403285     -4.49901683951089     -1.17460518280945
  O   1.89070392123951     -2.73099991167683     -0.76412340582947
  H   6.58628947522209      2.77051712456571      0.00221222508883
  H   6.74741828595147     -0.15008236559353      0.06081654236960
  H   5.56882945811479     -2.19626810853743      0.06928581577372
  H   2.33389200501761     -5.37906070181231      0.75097750478313
  H   0.37987800444321     -5.48796741505748     -0.96794502607972
