25
Coordinates from ORCA-job 18373optt
  Br  1.34102977904738     -0.24945809081220      0.24488699439693
  C   3.15499055213676      0.03261419152451     -0.26233087704615
  C   3.77009764699127      1.24636652084141     -0.04850820180299
  O   3.11782431889206      2.43409467126618     -0.00449485131262
  C   4.08436584044094      3.46780608632236      0.10621328680930
  O   3.71023751502915      4.62108560622844      0.17193935326756
  C   5.35927057409896      2.83731913336977      0.12384311187957
  C   5.14320515743993      1.46375422244798      0.03687267272165
  S   6.29893005554017      0.16698095166187     -0.08034144211807
  C   5.22796310421097     -1.23493904741061      0.05166374778929
  O   3.89467399323681     -1.13892939489445     -0.04296446007519
  N   5.78458882708817     -2.36319814316398      0.19197496406034
  C   4.92062641972256     -3.52812639784872      0.22208739077410
  C   5.76221347719094     -4.79617498389573      0.20519593376572
  C   6.68394460543609     -4.88831763429822      1.42308376751827
  C   7.63703005874208     -6.03112523649438      1.28245452149911
  O   7.74183158949395     -6.95611161580944      2.04426776480976
  H   6.29066974830727      3.36953183294864      0.20381401055869
  H   4.23561767136335     -3.52802388137486     -0.63219880694045
  H   4.28986256801110     -3.51081279542135      1.11941736814192
  H   6.36635221876035     -4.79898998208192     -0.70696052274403
  H   5.10718913928269     -5.67055753495233      0.16892331100370
  H   6.11837030405475     -4.99893255204560      2.34901405799815
  H   7.26218028810323     -3.95893829787133      1.46706394518499
  H   8.27193454737891     -5.99591762823595      0.37208295986043
