24
Coordinates from ORCA-job 18371optt
  Br  0.89048050280353     -0.24241824927814      0.47479965345073
  C   3.21532470734465     -0.42058614659482      0.41115195099599
  C   3.91987929136554      0.72966429946434      0.40931172117242
  O   3.80514225453756      1.82468017834169      1.22189867055494
  C   4.76010047207928      2.75580971595709      0.82530725364434
  O   4.86945327354196      3.80526219040440      1.40783856677940
  C   5.48592047530390      2.20781353951782     -0.30619580559112
  C   4.94390502668252      0.98281947225923     -0.52266289564814
  O   5.23959359703768      0.07379664527183     -1.47858682077354
  C   4.59181811610699     -1.12757589142042     -1.50540073171184
  O   4.92379691393766     -1.93855240444207     -2.33573207033366
  N   3.62245434386766     -1.34146108796133     -0.56442369105066
  C   3.02219379411696     -2.67141294717909     -0.57793502499425
  C   3.95887233619437     -3.73759126405789     -0.05581502619402
  O   4.19359275307694     -3.49651992141994      1.33005109306944
  C   5.21686024191084     -4.15837078245624      1.89106679786614
  N   5.51414289119912     -4.11842113832800      3.11132051211954
  H   6.27214925652954      2.72042749811027     -0.83010680743273
  H   2.74358612145696     -2.92557057914533     -1.60058635228717
  H   2.12675265182968     -2.61650974292456      0.03597881723265
  H   4.90200369407725     -3.72179020649943     -0.60564573166126
  H   3.49023215251943     -4.71923342040461     -0.17892508791274
  H   5.80863054026036     -4.75884744313195      1.19743205110044
  H   4.86611459221950     -3.50641231408283      3.60985895760511
