26
Coordinates from ORCA-job 18374optt
  Br  1.05734968007805     -0.77807883949471      0.88426222674985
  C   2.83005817795790     -0.36971216393070      0.42741968793430
  C   3.73272094937620     -1.34518733473160      0.13379023971463
  O   3.50007592799910     -2.68526612959130      0.21972506790478
  C   4.63632497762127     -3.32045003813034     -0.23673036305240
  O   4.62443433236573     -4.65681210785108     -0.20217807339522
  C   3.57300134867949     -5.24494192637404     -0.98197172409711
  C   3.53661102577970     -6.71375789077240     -0.70795605386653
  C   2.86279172194906     -7.18167645563111      0.54366169311011
  C   2.21226184658809     -7.41319182066796     -0.78675359403403
  C   5.55334199135689     -2.41278439321783     -0.57876522636334
  N   4.99576323300119     -1.16491448230182     -0.32412852704984
  N   5.66372748672949      0.01972785779978     -0.50271406458900
  C   4.98380658065360      1.07722867381490      0.03744355732958
  S   3.26677825550837      1.24761638077576     -0.07728305542324
  O   2.79167610678371      2.21928852339342      0.89031250002656
  O   2.75656811589386      1.42871793782284     -1.43121051070837
  H   3.76541013311785     -5.03087636435268     -2.03808753150404
  H   2.62095902495645     -4.78816013594157     -0.70043619252013
  H   4.40676109926877     -7.26971045069716     -1.03328642809790
  H   2.44525245824528     -6.41934895220324      1.18727468970071
  H   3.28456448276403     -8.03224726010951      1.05916008851303
  H   1.34671358021967     -6.81428998826098     -1.03596260513177
  H   2.19279749643194     -8.41983815104201     -1.17857222646412
  H   6.55151373412295     -2.51368757060320     -0.96045790397328
  H   5.49073623255117      2.03335308229871      0.02044432928680
