22
Coordinates from ORCA-job 18380optt
  Br  1.27946983602646      0.05677705567629      1.35813353159415
  C   2.90958176050217      0.05314524484393      0.40071883471951
  C   3.62072415480647     -1.08156134422003      0.24810949977162
  O   3.15471287902917     -2.32615936643196      0.58554747033502
  C   3.89255410107385     -3.45895751552593      0.42540765966977
  O   3.46045171722717     -4.48293827537811      0.86548852819118
  C   5.19131541856706     -3.35880418590167     -0.35975545197361
  C   5.82393571396593     -2.03260190374342     -0.16544832351219
  C   7.06027345685011     -1.45394795544784     -0.02706969785334
  N   6.98695499125721     -0.10820593430041      0.15702215916293
  C   5.67397575406981      0.18901649314826      0.14892035452097
  N   4.93217252390141     -0.97660326883299     -0.07552808131815
  C   4.97988744548318      1.40209892721618      0.35208001084033
  N   5.44308108074089      2.58188635957648      0.63909901226388
  N   3.55381280717514      1.27051109493579      0.09279542726285
  C   2.89439908738645      2.27367097105359     -0.56292419156083
  O   1.74429761727540      2.20734351923180     -0.94657294633542
  H   4.91122866913870     -3.53424353443216     -1.41014947278667
  H   5.82093207220167     -4.18747114263677     -0.04642117715997
  H   8.01313657872586     -1.96088556284119     -0.06705447519112
  H   6.45459084518847      2.50187688676840      0.72720583022721
  H   3.53451148940736      3.15505343724176     -0.67860450086813
