23
Coordinates from ORCA-job 18390optt
  Br  0.73718224092224     -0.66466101935655      0.09613147042106
  C   2.61612958227708     -0.52927797033436      0.32122168217658
  C   3.43670187216149     -1.61465605692708      0.30932031495969
  O   2.89473711045400     -2.88461559018801      0.44415036917329
  C   3.18747803096432     -3.74572328228533     -0.61034451241033
  O   4.36853828706828     -4.49057531655667     -0.39373261651413
  C   5.58316697447666     -3.78078622749122     -0.52622262080330
  C   5.74214807371346     -2.59492564718116      0.43304917744699
  C   4.82070555588662     -1.44077888254166      0.18788017084529
  C   5.30460232819644     -0.12646066789220     -0.00716395094362
  C   4.46563144812328      1.00050588322563      0.00212602529853
  O   4.72773401883777      2.17584165434141     -0.15943491550507
  O   3.07560722700924      0.73960605792683      0.27493205644823
  C   5.80302429069261     -3.37300865771091     -1.93510251040127
  N   6.02069260960160     -3.10635863742962     -3.02864799688680
  C   2.09340878207710     -4.71850067871627     -0.73697525472774
  C   1.17980871839465     -5.47734889478957     -0.87325801239372
  H   3.28324645565020     -3.16726888934432     -1.53859199543385
  H   6.34907346824342     -4.52709889591737     -0.30215715338869
  H   6.77595461123409     -2.25072788112383      0.35768808322384
  H   5.60695684749472     -3.01407468365140      1.43815690936623
  H   6.35501285999918      0.06427173223054     -0.17438127611001
  H   0.36345860652143     -6.14837744828687     -0.98664344384121
