22
Coordinates from ORCA-job 18393optt
  Br  1.05720481996924     -1.43685685436692      0.06071000789659
  C   2.86423805263185     -0.88364189331320      0.06605956282287
  C   3.18933834097580      0.48031432707298      0.13743119962218
  O   2.17450913853348      1.34509666420659      0.25770467245492
  C   2.14730093324886      2.77412997310577      0.02180636423845
  O   1.00888023559881      3.16637090292319     -0.12778036954026
  C   3.30546396131728      3.58930793507993      0.04127934236175
  C   4.66699950250450      3.30799844107132      0.16058690901727
  C   5.24429934065984      2.04215242106162      0.19342844257806
  C   4.53381235215504      0.81927350245441      0.13801491108581
  N   5.52745930357205     -0.17881027747637      0.10426382100616
  C   6.71774011703490      0.46307301383694      0.16056842149813
  N   6.59697886141508      1.76790357103604      0.21626700727220
  C   5.19842955799063     -1.53756799800349      0.04315590844782
  C   3.86702952256672     -1.85830550186876      0.01995491970309
  C   6.24366425293958     -2.48470776943309      0.01811571468076
  C   7.15597734096455     -3.27192465754353     -0.00147386045246
  H   3.02460682233071      4.62869644211165     -0.06351805940280
  H   5.35317562143854      4.14582624044886      0.18084775967380
  H   7.64436468387097     -0.08941887301767      0.15548334266450
  H   3.59619154351773     -2.90326492557749     -0.02757628891593
  H   7.95233569476369     -3.97464468380879     -0.01932972871294
