26
Coordinates from ORCA-job 18396optt
  Br  1.06659002949442     -0.12051802047373     -0.16040429561546
  C   2.98910479377506     -0.12786343940628     -0.03839226962002
  C   3.64764732267232     -1.37599403669087      0.05200939303018
  O   3.03072132263104     -2.42942898753408     -0.66188339419756
  C   3.38135055317243     -3.70999422480531     -0.59820534121849
  O   2.85806988526284     -4.50315286549746     -1.34719618864267
  C   4.40227870442248     -4.15515247049998      0.42479031040719
  C   5.83995054846715     -3.70812689023524      0.11111496524731
  C   6.06214980123583     -2.31205763763300      0.65703763810703
  C   7.35395224180026     -1.59507182741464      0.27609053252741
  O   7.06083919441489     -0.19773387137723      0.38877032107172
  C   5.71048707208444     -0.07763097193582      0.17314479932184
  C   5.06723356873941     -1.28947633267433      0.17980518715831
  C   5.06020727063463      1.16177629787549      0.06848043755298
  C   3.62855375093635      1.07734032042938      0.00914635925774
  C   5.74471728091242      2.39092538221166      0.03923640260596
  C   6.31558748990437      3.45793940241162      0.01628629722616
  H   4.32765693253899     -5.24014275299117      0.44525563038814
  H   4.11321788285271     -3.75953285801607      1.40454272586426
  H   6.00938883910234     -3.72841547778233     -0.96949855998731
  H   6.54020386906658     -4.41305111444008      0.56777597190886
  H   5.99900725846021     -2.38152608622813      1.75710740750799
  H   7.61218627308596     -1.81730326320013     -0.76724451938282
  H   8.20441726404555     -1.81473249589532      0.92046832715401
  H   3.05273252314468      1.99274318119363      0.02072600997559
  H   6.82674832714255      4.38818104060944     -0.00396414764833
