27
Coordinates from ORCA-job 18392optt
  Br  1.09405229911622      0.10468063080493      0.29917622587536
  C   2.98447585597035      0.11596039938661      0.08628047871635
  C   3.68199074138369     -1.04650189625339     -0.15251949444191
  O   2.97732194497342     -2.22286011400827     -0.39266238481216
  C   3.60140316439828     -3.41017123300003     -0.41778625871830
  O   2.97430918160157     -4.39525008847384     -0.70787948457296
  C   5.06404604689578     -3.44031124145442     -0.03605744530256
  C   5.83841372552323     -2.22440166472700     -0.53775711084302
  C   5.06445437160505     -0.99687911553800     -0.21165729789886
  N   5.72689494862905      0.21444627872263     -0.06119877724664
  C   4.94733060049652      1.25361838570829      0.19149820417161
  N   5.58235710449999      2.47973424004639      0.41386885490480
  C   6.93316851535850      2.67363765479878     -0.03554568253095
  C   7.09484905842535      2.68853200616251     -1.56827896341526
  C   6.42999271339347      3.83114239166880     -2.18555273994665
  C   5.87231790852342      4.78185850561488     -2.65941359856485
  N   3.61831604079430      1.30783109128497      0.28397787810174
  H   5.46089420220187     -4.38903660257779     -0.39477808362413
  H   5.09078831625465     -3.45066937086136      1.05793365005498
  H   6.03284048715945     -2.32587071697048     -1.61756427866950
  H   6.81709244891481     -2.17510484109827     -0.05353379159897
  H   4.94833684830651      3.25208313342388      0.27181342771043
  H   7.53795929359278      1.85570947682321      0.35291547743920
  H   7.30530211630392      3.61388394153924      0.37678525981442
  H   6.67461057692815      1.75676121693598     -1.95294653952022
  H   8.15663978663589      2.70825373672235     -1.82870846769269
  H   5.36284170211369      5.61092379531940     -3.08640905738926
