26
Coordinates from ORCA-job 18397optt
  Br  1.05901480808368     -0.22543860921218      0.03602242458148
  C   2.93303592404593     -0.06737999038918      0.06362604939942
  C   3.69403459865650     -1.16032404405088      0.32607265780979
  O   3.15676638086088     -2.37349371140801      0.64299994407343
  C   3.35502804366403     -3.41531645215770     -0.26829589953316
  O   2.67826105198261     -3.51583782826593     -1.23788329296592
  C   4.50383944266380     -4.27803136084390      0.14048295337132
  C   5.79386024903270     -3.47711816390378     -0.10901695717917
  C   5.96081423117595     -2.20492236589915      0.71366319458514
  N   5.05027772455343     -1.10657127702436      0.34925553165182
  C   5.69333224586752      0.09681029481560      0.17524941522914
  C   7.16257430628188     -0.07996265705581      0.40477026467320
  C   7.32666562866980     -1.58368442816122      0.47410362930163
  O   8.39168732431708     -2.18821054701354      0.80745502221774
  C   4.98941038992166      1.22063622558340     -0.08061748032338
  C   3.53818558522684      1.23811736268833     -0.17883594116086
  N   2.80895053051436      2.27175962712479     -0.43462491557182
  H   4.48710634458892     -5.19333425464188     -0.44814162865590
  H   4.41351473146127     -4.51345667828682      1.20253806601493
  H   5.87269250229621     -3.21459006416302     -1.16703376923187
  H   6.66230964889461     -4.09038293261329      0.13961815744421
  H   5.79125630027861     -2.45404649079161      1.78047960766478
  H   7.44788821311727      0.42306625449523      1.35131924612859
  H   7.76101655690275      0.38856353899642     -0.38218117812312
  H   5.52119166193133      2.15558416392811     -0.20422599265799
  H   3.41228557501028      3.08056438825040     -0.57079910874344
