25
Coordinates from ORCA-job 18395optt
  Br  1.30203014883657     -0.07441300595460      0.95880747474116
  C   3.14511815795343     -0.08415702392812      0.45492622428619
  C   3.72498332730509     -1.30116700664717      0.10180790434570
  O   2.89541115857001     -2.39002656556985     -0.13429606237316
  C   3.27448000315373     -3.67224410918408     -0.06920018019100
  O   2.51547529534279     -4.51782755906812     -0.47222364474097
  C   4.63455816014488     -4.01521792588504      0.49344627543103
  C   5.76086196269819     -3.75077614525878     -0.52387347241845
  C   6.05541445683863     -2.28652413389400     -0.57608819814548
  C   7.25420836657455     -1.64350266162957     -0.78125370056149
  N   7.07487375677869     -0.29866924998036     -0.59636870920103
  C   5.77915014449190     -0.05383871891713     -0.26066869052663
  C   5.10104270988917     -1.27654772706210     -0.25183925121737
  C   5.19614596858143      1.20003662745875      0.08186828963989
  C   5.96465908422892      2.38362570055817      0.06512185753472
  O   7.18406008623061      2.44815556602999     -0.24850133897379
  C   3.82805480792553      1.12022015180437      0.46527187931139
  H   4.58400764623591     -5.07219325913626      0.74637813714800
  H   4.82387080015479     -3.43012317334047      1.39576941470500
  H   5.45408343265408     -4.15571123397376     -1.49373329345076
  H   6.65284004726215     -4.30361988152440     -0.22035420792221
  H   8.22110996022687     -2.05103334449374     -1.02790752937982
  H   7.73237475979457      0.46984428215110     -0.64477640765005
  H   5.42976414644526      3.30607630894183      0.35372784300905
  H   3.30942161168223      2.01663408850336      0.77895938660006
