22
Coordinates from ORCA-job 18403optt
  Br  0.95074651291576     -0.52214667574321     -1.15464382442275
  C   2.61110778088091     -0.19873517177978     -0.23721430665937
  C   3.49114433272796     -1.27485759477626     -0.03971918959699
  O   3.17045625509748     -2.58844922915246      0.09530170143656
  C   4.36618915350400     -3.33247665923412      0.23774861600305
  O   4.31141307986829     -4.53284506020057      0.35747715802178
  C   5.44901247032399     -2.39067024594036      0.20309168471351
  C   6.82142055544999     -2.67028613254825      0.28916577274007
  C   8.01285100398312     -2.85752131445513      0.34676732005660
  C   4.85892926075563     -1.12662764486900      0.03333673785734
  N   5.43059983327663      0.12372357955974     -0.04845063595783
  C   4.60307647804397      1.22924113993828     -0.22059722078363
  N   5.27881159481516      2.45984915167584     -0.23446083794573
  C   6.01279679283350      2.94221604462597      0.83806348889676
  N   6.33769748518924      2.36652802370467      1.91567609757653
  C   3.25767442264886      1.06955066091105     -0.33118535274279
  Br  2.20004189516804      2.65520150857101     -0.52142131347599
  H   9.05645057699451     -3.04349211135737      0.40841417631763
  H   6.40702217947970      0.20702845475346     -0.29269148325536
  H   4.86020010376954      3.16395120310696     -0.82194160617196
  H   6.35834127322502      3.96080150449781      0.65796599470984
  H   5.95601695904832      1.42201656871171      1.97131702268273
