22
Coordinates from ORCA-job 18404optt
  Br  1.36303517464992      0.29104257968779      1.24899317326235
  C   3.02730324946586      0.08436072762905      0.39369552126634
  C   3.53701078492370     -1.11299168712076      0.08747047196673
  O   2.94058118435954     -2.31172539417130      0.30201595360915
  C   3.75531451188765     -3.26261121054146      0.97480879130342
  O   4.38667610700515     -4.14470427663321      0.10786714455111
  C   5.28459268714014     -3.55533796635654     -0.86004127443674
  C   4.65813188057558     -3.64126023753547     -2.19106384619639
  C   4.19415644921457     -3.68629983590248     -3.29465777196151
  C   5.70941858116450     -2.17264791101158     -0.54035844225702
  N   6.93949994946502     -1.73899018203995     -0.42375373242178
  N   6.94291132456486     -0.41767932959846     -0.19087768163653
  C   5.65230990202689     -0.00833077422006     -0.15086637098466
  N   4.81912315604275     -1.10783950000977     -0.43474078188265
  C   5.08165240525356      1.22760940979041      0.20275711207613
  N   5.60765012400165      2.34499132890419      0.56712277018103
  O   3.65852800211640      1.24029654539438      0.06429975680485
  H   3.08882155577621     -3.87131466863531      1.58094678876397
  H   4.47423954331305     -2.72819808161055      1.60388727925031
  H   6.19103961156939     -4.16227993396159     -0.85941383198437
  H   3.77585230465225     -3.71241198837098     -4.27124082836084
  H   6.61815151083121      2.21832238631367      0.57814979908710
