24
Coordinates from ORCA-job 18415optt
  Br  0.51088341257989      0.50455533996353      0.32500996697697
  C   2.75422453493656      0.28928689957541     -0.68802325752927
  C   3.50457836013759     -0.85030559259209     -0.56774445359839
  O   2.94953357315387     -2.10665416211624     -0.72815162916157
  C   2.33564763615442     -2.66709949174200      0.39500585118235
  O   3.19064212367819     -3.58875624193116      1.02871026860010
  C   4.40362286212218     -2.99589508494018      1.43643197182492
  C   4.90391188454349     -3.73675661201178      2.59918078746058
  C   5.31372605351337     -4.33619760577835      3.55030220812947
  C   5.47352212487680     -3.00150923832462      0.32044992154858
  N   6.19360589617878     -4.00634971244464      0.03669812616062
  N   5.72405727885735     -1.79729513081971     -0.30072255830336
  C   4.89741946277221     -0.68648480200778     -0.43620020301601
  N   5.52289114991242      0.47229938874752     -0.49134135423950
  C   4.80048319322649      1.61684184471433     -0.64465547258966
  O   5.26815137712201      2.73927210000264     -0.73520174211917
  N   3.39763509461784      1.45828007390292     -0.68145162035044
  H   1.47487547272800     -3.24396384737393      0.06647581075070
  H   2.03536574833675     -1.87638623396241      1.08843894785507
  H   4.22591391578222     -1.95894281344460      1.74825849822128
  H   5.67533612241549     -4.86221024774873      4.40050980373454
  H   5.97778006745994     -4.78208336932085      0.65837739979888
  H   6.65244331190601     -1.69029101804061     -0.68260283788962
  H   2.86474934298788      2.31664555769341     -0.73475443344715
