22
Coordinates from ORCA-job 18419opt
  Br  0.81124960859888      0.61301410282669      0.10032304207020
  C   2.78429605468916      0.07931877936398      0.06305642581615
  C   3.62025936056069      1.19938921226497      0.11040657800512
  O   3.15909928133038      2.49135131413664      0.12178579800728
  C   4.23113234675387      3.35166312323308      0.13256624706730
  O   4.07427068967686      4.56022367238467      0.14089103394409
  C   5.43426723723036      2.56125301016570      0.12461388711409
  C   6.79821577162603      3.16382535176704      0.12890490450309
  C   6.98559085651689      4.14595875153989      1.28292873552105
  C   7.20303307607453      3.47216191950494      2.60966485341098
  O   7.37267058313628      2.29114700416781      2.76257425787824
  C   7.23991032009306      4.38315259402073      3.76481128996571
  C   7.27536549387325      5.15674465734203      4.67923862241203
  C   5.01621646604357      1.25045630733780      0.10322090486800
  N   5.84032152118422      0.07687765493049      0.13173671028433
  N   6.89959801784717     -0.01047784691087     -0.35045993754963
  O   3.02815140120966     -1.08741548066701      0.00966467311632
  H   6.95578807863093      3.71148484685351     -0.80489911243676
  H   7.55339533818963      2.37928893061149      0.17824237044214
  H   6.11944844170086      4.80987098124842      1.36223560306392
  H   7.85409876444343      4.79625459068915      1.12589740097381
  H   7.29962129058978      5.82845652318856      5.50359571152245
