29
Coordinates from ORCA-job 18414optt
  Br  1.79319737984706     -1.21481303404766      2.53118732172875
  C   2.55228544836558     -0.17511059372382      1.11279269045152
  C   2.79107435851385      1.15712966334363      1.30530955708754
  O   2.44765971179307      1.74806143960809      2.52490415261104
  C   1.48810228337189      2.69425558861204      2.60092393107427
  O   1.16259693202217      3.07617390263522      3.69347140011210
  C   0.90632115719419      3.35652400208257      1.35050068826471
  C   0.32089027051194      2.51443001765701      0.20225502755079
  C   0.46546804151801      3.17813635442768     -1.18184870514256
  C   1.86291420343801      3.58006832293665     -1.69459854021585
  N   2.79954748984122      2.51282458471724     -2.05830572176637
  C   2.95976878357564      1.52384676134478     -1.04887747046665
  C   3.24470152569632      1.97826078255405      0.25765240992865
  C   2.69649455647519      0.19933739168663     -1.27902514888964
  C   2.69283701923139     -0.74944829312839     -0.19175178795384
  C   2.64832992847219     -2.12716945164976     -0.43299652351819
  C   2.57088524971098     -3.31444279086616     -0.67708674378623
  H   1.70619996319281      3.99289020441138      0.97085891418145
  H   0.14415225313467      4.02584028197959      1.74969504052791
  H   -0.74921234236958      2.38922208479286      0.38857177650806
  H   0.73754440185991      1.51190834674668      0.17602664637441
  H   0.01159932201460      2.50835869055788     -1.92024327681230
  H   -0.13600314342164      4.09606819454256     -1.18711664438205
  H   1.72127593595339      4.19036513968429     -2.59058881494167
  H   2.35163824830830      4.23282308814202     -0.96916153656907
  H   2.50608824773574      2.06976683188350     -2.92006637370857
  H   3.55436486854503      2.99343705750485      0.45229340886238
  H   2.42645921515511     -0.14289320633487     -2.27332269838398
  H   2.53181869031289     -4.35785136210063     -0.86745297872658
