23
Coordinates from ORCA-job 18417optt
  Br  1.14695121464729     -0.11849251569104     -0.46451273419271
  C   3.03074126384218     -0.07310245285161     -0.28764837126431
  C   3.73943287200140     -1.24250458132734     -0.22313217190413
  O   3.08597219460415     -2.44575237678999     -0.47148240614061
  C   3.66823036021453     -3.60867903136607     -0.16623318490046
  O   3.08855271383659     -4.64115890823809     -0.36110570216222
  C   5.07182693033014     -3.53778615389310      0.43998706974052
  C   5.82592105960215     -4.83163550168081      0.15844271559156
  C   7.10084623206737     -4.89179521376395      0.86634459437960
  C   8.14069884508899     -4.93633551785942      1.45938344919349
  O   5.79427127961956     -2.46314003111893     -0.09608752799813
  C   5.10269632539207     -1.26802558483867      0.07474840619780
  C   5.79173963787122     -0.05024326626194      0.27618148861056
  C   5.10941813753566      1.12963086160562      0.20894555990616
  C   3.70611879969242      1.18678259674769     -0.07367995223201
  C   3.06060690373691      2.42394685261134     -0.17136204271444
  N   2.56249694365208      3.47369190756925     -0.23046882776115
  H   4.94716549888608     -3.40068599459788      1.52405534974044
  H   5.99485668840568     -4.90629579487406     -0.91773754966861
  H   5.19545930672879     -5.67211267295255      0.44818410523557
  H   9.06481720216063     -4.96504742301649      1.98373077314340
  H   6.85197717782814     -0.07680813338847      0.49156665869899
  H   5.62720241225583      2.06354893597655      0.38588030050070
