23
Coordinates from ORCA-job 18412optt
  Br  1.63279892040907     -1.63305792595919     -1.08063287575217
  C   2.09605029472562     -0.04873668933925     -0.15129324078848
  C   2.64666596228676      0.98332089253616     -0.84311297099895
  O   2.63137876692357      1.07593549016622     -2.20590083402554
  C   1.83192731939476      2.06890667587378     -2.78622541234820
  O   1.96951714350499      2.20866736301681     -3.97468659717397
  C   0.97518048252639      2.93661822093646     -1.97500467033398
  C   0.47835092985113      2.77872308275659     -0.70541352826795
  C   -0.04798284412829      3.80359371093452      0.10104052053761
  C   -0.22626730910714      3.80631614544869      1.49141491990676
  C   0.13725931435829      2.94683246223074      2.54931449252257
  N   0.81551691772306      1.80507167688012      2.63123954541435
  C   1.63170331552306      1.37516816787734      1.67803610598572
  O   2.48559254965914      2.29073903383870      1.13748900238095
  C   3.09829279435411      2.13962693820086     -0.08926577238150
  O   3.88027569283003      2.97616073878003     -0.44757724566577
  C   1.65684043302997      0.08536745541896      1.18070985776228
  H   0.82065226339095      3.88633631708380     -2.47519671466349
  H   0.51654457947347      1.80249838067186     -0.24643316538284
  H   -0.27976157091779      4.74058938432914     -0.39945688119448
  H   -0.73519739829723      4.69007239458675      1.86530081887832
  H   -0.28456804856991      3.25235431535782      3.50537192986615
  H   1.07122949105596     -0.68110423162692      1.65928271572262
