27
Coordinates from ORCA-job 18421optt
  Br  2.61255225538802     -1.26431873726992     -0.25538076801706
  C   2.59588523129624      0.57206072399326      0.38621250068623
  C   2.36285738374146      1.58720948569752     -0.54632251648476
  O   1.39709495014408      1.43775421299723     -1.54539768444079
  C   0.11670395246747      0.93655540896587     -1.18215072028058
  O   -0.93978729020429      1.83947898579701     -1.41226532860882
  C   -1.27832302417684      2.76125210993461     -0.37389391859904
  C   -0.00916272395760      3.45063535176263      0.07283340556901
  C   0.04445626464858      4.64781482149836      1.01990458568682
  C   1.35915339625349      5.43865060893324      0.87227530230682
  O   2.58958236132998      4.80203136906756      1.28018447668185
  C   2.69559456169472      3.47493938103705      0.96568339878298
  S   2.56339997199041      2.45084737603699      2.37867167563406
  C   2.89766365235434      0.72393717559084      1.74019345079550
  O   3.26020029052612     -0.07203036581407      2.59165943432890
  C   2.76059839712101      2.94711678229280     -0.26655243813226
  Br  3.07173847613535      4.12193211085305     -1.76679469154010
  H   0.13763587743948      0.60585791983999     -0.13866294472284
  H   -0.08469469975387      0.09408812639774     -1.84148260237527
  H   -1.76651417630833      2.22791904309059      0.45212257911163
  H   -2.00556642905381      3.44240658506902     -0.82121171886304
  H   0.49264299312070      3.72819244234150     -0.85378346678123
  H   0.56487123467691      2.65947890209601      0.53667271882017
  H   -0.09520355291473      4.33959075455722      2.05929156484459
  H   -0.74477077970806      5.37174560860954      0.78529411927689
  H   1.32066701154590      6.33214871731049      1.49539149949747
  H   1.46072441420326      5.74870509931381     -0.17049191317710
