25
Coordinates from ORCA-job 18426optt
  Br  2.12420433332400     -1.15524076796807      2.16060140588124
  C   3.09650698970500     -0.26476750476628      0.80107594950465
  C   2.78663734774324      1.01780990941436      0.43094491032382
  O   1.89450237699073      1.78009642176598      1.19867807462005
  C   0.59093150107956      1.77141312419744      0.84023127466546
  O   0.05651130542534      0.90052216418590      0.21906763271994
  C   -0.12269033536707      3.00280987735469      1.35780905230335
  C   -0.38707406809062      3.99743957139762      0.21978593744038
  C   0.90471505205375      4.47124678957331     -0.45005822743266
  N   1.59924667373937      3.36314317865061     -1.05796148731930
  C   3.02457765368671      3.14960132155755     -0.83595985966647
  C   3.37199823107410      1.69182906354536     -0.64117840952881
  N   4.25326769820826      1.17309871028426     -1.53407276008421
  C   4.76434228939953     -0.03673781754509     -1.47034979901156
  O   5.53914740372167     -0.58599373279898     -2.22951650739008
  S   4.32612930484628     -1.17442851885064     -0.01362513605017
  H   0.47799819762279      3.47305690551486      2.13724821860963
  H   -1.06957224110149      2.67393527643017      1.78655051205931
  H   -0.94084815372151      4.85474901171881      0.61376523534454
  H   -1.01986668495904      3.51309767313276     -0.52890805389936
  H   0.67388509160098      5.28045534414369     -1.15728624705695
  H   1.55893574826127      4.90275218652510      0.31298564967886
  H   1.29895335866275      3.13431944842760     -1.99220716944939
  H   3.28965079806680      3.71423736301417      0.06353235553743
  H   3.64791012802754      3.51755500109475     -1.65615255179968
