27
Coordinates from ORCA-job 18429optt
  Br  3.76060238722337     -1.19574916013389     -2.01192102963733
  C   3.04279125412539     -0.12690921011516     -0.63736244286314
  C   1.86465094579778      0.51789803975689     -0.69198523632179
  O   1.05280459017778      0.41437465695770     -1.79371767467224
  C   0.08607187410045      1.41995763906153     -1.91895177180554
  O   0.63808607859248      2.68783425642907     -2.15215729052587
  C   0.30856993778485      3.74114454679746     -1.26093496803547
  C   1.42782395428546      4.14301282267701     -0.28581955599539
  C   1.17722954671059      3.76891686896295      1.18957482484417
  N   2.19256769299048      2.94765522007368      1.83926428803242
  C   2.44189839495266      1.74337757027167      1.12385377088777
  N   1.46423766199711      1.34832007549194      0.28971926587469
  C   3.69448019176817      1.10381119487491      1.25675417256117
  N   4.70875155337455      1.38002920245060      2.01690211230807
  O   3.83691409491767     -0.04716114740782      0.47977353850192
  C   0.88282831977895      4.94915201552805      2.07787321487592
  O   0.51817740450008      6.03151215621834      1.69931991572231
  H   -0.55074555773705      1.44912434527921     -1.03232736761972
  H   -0.48387552571485      1.12274191258708     -2.80084421007816
  H   -0.59735157653791      3.48245335759478     -0.70155780504449
  H   0.05927848305262      4.59392530972589     -1.89639387375885
  H   1.57302414363114      5.22350924378410     -0.34680567316256
  H   2.34601204728388      3.65538122814467     -0.61648515132472
  H   0.25519173524382      3.17374645676548      1.23810250153876
  H   3.06219543434303      3.46113661374325      1.95548508346912
  H   4.45697874869190      2.12353603415293      2.66133289549633
  H   0.99180618466559      4.73426875032764      3.15930846673262
