22
Coordinates from ORCA-job 18425optt
  Br  1.84491667624720      2.63497293487252     -0.58485042632430
  C   3.67549631691191      2.44651240486206      0.06571960146147
  C   3.83923019477013      2.97968824865714      1.38259250995477
  O   5.21386366958585      3.08795972259092      1.79034903370903
  C   6.15399936939127      3.45046801428034      0.91501241149518
  O   6.08476182652430      4.29598457842594      0.07126249400288
  C   7.38102731020227      2.62041609601599      1.15841979935599
  C   7.82093201141959      1.73293952532651      0.26422199887847
  C   7.13156985109259      1.48233768399421     -1.04857409966899
  N   5.99555812404906      0.97159635391201     -1.23407483990292
  C   5.19641418232395      0.47344819179607     -0.17354040055060
  C   4.06624991117131      1.05703281144769      0.23051413658162
  O   3.26721842455202      0.33557952485022      1.14491487502288
  N   2.78505256943688      1.00524052642496      2.25491882305121
  C   3.10727140984068      2.24352946288211      2.41124294710236
  C   8.99880341521209      0.95648475548244      0.50083482629851
  C   9.98279858779410      0.28399941364095      0.65024584991465
  H   7.88094051472448      2.73035811061139      2.11386361889372
  H   7.70505968593240      1.77136659444357     -1.93050779742495
  H   5.50560511431077     -0.47925564270741      0.24364889668119
  H   2.77740839874287      2.65918194125721      3.35921770795928
  H   10.84982243576422     -0.31284125306687      0.79656803350853
