20
Coordinates from ORCA-job 18435optt
  Br  1.11439416634435     -1.14717753035610      0.01384834278323
  C   2.93184008500208     -0.66179506799741      0.04440098104092
  C   3.34321908105471      0.63924193750913      0.02843002314181
  O   2.36135128669360      1.56233650965757     -0.02286660210054
  C   2.39476910021352      2.96193622094156      0.01770819927513
  O   1.28729583906356      3.45741368666028      0.01491340170532
  C   3.59460486845079      3.74231833590177      0.04484185292686
  C   4.94477992826878      3.42055854723280      0.05518715702718
  C   5.83830692692118      4.58638482459657      0.07400330685744
  O   7.05159859012058      4.59092478961006      0.07698685862791
  C   5.46399941495912      2.10732355491833      0.05816281672522
  C   4.73416414928287      0.91599551566037      0.05609238152598
  C   5.71855170589481     -0.15198599721340      0.08967123645089
  N   6.99973698069967      0.37501954768504      0.10551253171695
  C   6.84074682142436      1.67407681643350      0.08733996672614
  N   5.51677858094042     -1.43884679283035      0.10576442713408
  S   3.99443107606433     -2.02822325229600      0.08818043251154
  H   3.33967269958326      4.79460743646451      0.05841087967249
  H   5.29401478726325      5.55171328853599      0.08609012845222
  H   7.68974391175469      2.34117762888572      0.09532167779924
