24
Coordinates from ORCA-job 18437optt
  Br  1.07532479830385      0.22511755057279      0.20940568949727
  C   2.95020043166436     -0.07172724792256      0.46488097562906
  C   3.53623342524239     -1.28294519284814      0.17297096238073
  O   2.82042593615865     -2.46055456194378      0.21734192768556
  C   3.49525981552767     -3.46566528528972     -0.48001998745873
  O   4.78335379519741     -3.68242436429149      0.02067840343709
  C   5.64409276951930     -2.56921232330931     -0.17484298215101
  C   6.42330344115984     -2.70694229875228     -1.50420843437648
  C   7.43300722163384     -1.57634670128828     -1.72480626394586
  O   7.66961277413766     -1.12957952429322     -2.81127329067072
  C   7.17994197699159     -3.95732589000098     -1.51333448301466
  C   7.82930920468148     -4.96476601179726     -1.48566623046222
  C   4.89125344908587     -1.27595132063705     -0.11252049612399
  N   5.61164730002217     -0.15331540758754     -0.29885516061359
  C   4.98852691133818      1.03787441741687     -0.14633168519110
  N   5.44346150710483      2.20272328128721     -0.40239385191720
  O   3.69747600030333      1.05860662415504      0.41890204376704
  H   3.54018353816694     -3.19526039054979     -1.54414689632498
  H   2.93889867469020     -4.38769091191276     -0.33348914950008
  H   6.37518282761981     -2.61385716900263      0.63973359110687
  H   5.72885588460365     -2.68427132094500     -2.34744049697699
  H   7.99626896601013     -1.27165180199142     -0.82895633877485
  H   8.39528989116934     -5.86409034656010     -1.46569971466499
  H   6.38288945966739      2.07825619749147     -0.76992813133616
