23
Coordinates from ORCA-job 18433optt
  Br  12.35157792016112      4.29085460108700      8.03983789238937
  C   10.55831359483929      4.37636332992570      7.47405207031367
  C   9.92722881439729      3.35251093491696      6.89842798404398
  O   10.44603756389428      2.15084846991984      6.64683719106834
  C   9.95248276498868      0.96150640733271      7.41838897837317
  O   10.29587544906333     -0.09389710921258      6.94934069751202
  C   9.14400384139375      1.32927313250405      8.50594020503848
  C   8.21533593838649      0.59270693901307      9.25757016399332
  C   7.06649818103550      1.31340084996856      9.76770022559212
  N   6.37002380760625      1.13652895726236     10.83670037216498
  N   6.66768382873820      2.38271512825488      8.88104417880338
  C   6.94463672744217      3.71144341040244      9.19496038419952
  N   6.61752510647104      4.32149894982356     10.25696873652874
  C   7.87436907069096      4.37279404942636      8.20399155232197
  S   8.18829567148019      3.69547459215557      6.58359478369987
  C   8.78221900514020      5.24705281400694      8.62409552765575
  O   9.90477546732335      5.51934749331901      7.86042448588596
  H   9.12836053346934      2.38538868037492      8.70597214708871
  H   8.28753571858164     -0.47513445604271      9.42259871981791
  H   6.81932854883399      0.41364147024990     11.39629554964690
  H   7.00837631672621      2.16091991090540      7.95646243999981
  H   6.08964998054775      3.67959476851943     10.85114774747087
  H   8.76786614878870      5.71916667588652      9.59664796639090
