23
Coordinates from ORCA-job 18430optt
  Br  2.75557061978841      1.51329457640682     -1.79263359338404
  C   2.86887661124264      0.12398033368512     -0.51461143124726
  C   2.80579062345649     -1.19488267420305     -0.84504689990960
  O   2.30456874925077     -1.63977386601787     -2.04439270898738
  C   0.95396389743605     -2.11714685679849     -1.92093851706820
  O   0.15036609296651     -1.68564855270278     -2.70278237832061
  C   0.77804597732321     -3.06470439423404     -0.84757620677818
  C   -0.38181196651581     -3.29732684986629     -0.13469407284136
  C   -0.41831444504494     -4.05670404740423      1.04822777710848
  N   0.64020912988549     -4.58035937636798      1.69459217041825
  C   1.73475467233776     -3.88765141527124      1.92578132749579
  N   1.74835580313852     -2.57701959899534      2.14170233903727
  C   2.57978513467613     -1.72560150478112      1.51110324684915
  C   2.73209759700679     -0.39187973815359      1.80669554060955
  N   2.99131804886929      0.50479385764844      0.77608747344247
  C   3.16631098250462     -2.14421462504809      0.21052864320884
  O   3.70130695181904     -3.22527159168617      0.02587770783759
  H   1.65813924346264     -3.60562152101831     -0.54917434168734
  H   -1.31992039145310     -2.87970303015203     -0.48599683693821
  H   -1.39900720589729     -4.35431786591607      1.41422660509564
  H   2.65505390130104     -4.47194542753671      2.01220318514118
  H   2.45419914108709      0.04107836444279      2.75599267489645
  H   3.28134083135863      1.44562580397026      0.97882829602151
