21
Coordinates from ORCA-job 18434optt
  Br  1.48661373109487      0.16858770857218     -0.48914773129592
  C   3.34316866679513      0.03672727806226     -0.21270255122719
  C   4.13173872880995      1.15317821263902     -0.10410335949374
  O   3.51642500289056      2.34168484379294     -0.21658302588989
  C   4.19691704683543      3.58472619971958     -0.19737508724175
  O   3.49178672089765      4.55383461713887     -0.38365478350461
  C   5.57968260296150      3.52080064231326      0.04632926353883
  C   6.27321707704574      2.32311878238355      0.23666407643040
  C   7.67736759644801      2.37646558315035      0.54810095836828
  O   8.34650777045638      3.40478760227320      0.62374216160925
  C   5.56892428064355      1.06340153670941      0.12303695434470
  C   6.15770125345339     -0.18519265391661      0.19387961776021
  C   5.35030595491452     -1.33064184469246      0.07590612536835
  N   5.67139151493963     -2.63471939414208      0.11596620694141
  N   4.50742689695564     -3.22439276258856     -0.05339042388378
  N   3.44048543583703     -2.46669508400809     -0.20199914147892
  C   3.95059509424780     -1.23416328604201     -0.12363129839371
  H   6.11259767422449      4.45755418692341      0.10382745708240
  H   8.17261994932088      1.41044692022874      0.74468670851911
  H   7.22087611109509     -0.30150506279864      0.33422787165212
  H   4.43165089013270     -4.22700402571831     -0.06977999920555
