22
Coordinates from ORCA-job 18439optt
  Br  1.49953617557194     -0.68062646122904     -2.46480753939314
  C   2.39319061502137      0.23025369999369     -1.04035781951341
  C   3.16867732126867      1.30565101695664     -1.35282065677991
  O   2.98757191441465      2.06317648660033     -2.49286268436639
  C   2.29590012178932      3.24914427578973     -2.33880244755820
  O   2.11374843051123      3.91441218992691     -3.31442104190177
  C   1.89385758559026      3.69230445919402     -0.95811453917353
  C   1.25614574007808      2.96817128015198     -0.03870196905704
  C   1.11294301229551      3.35709367843111      1.40298476182886
  O   0.93489632818436      4.54060953486121      1.74304319610085
  C   1.21926038017289      2.29439596895045      2.38168932606197
  N   1.58734481239103      1.02187389305671      2.18032536337175
  C   2.35464000752934      0.75288605404815      1.12215503453981
  N   3.52779590099561      1.46625306843267      0.96668446263724
  C   3.97934300914103      1.87384130331151     -0.29678403137498
  N   4.90727589600295      2.72798468689558     -0.49925662026734
  N   2.02684685342183     -0.13790579426635      0.18982403470699
  H   2.23244184757215      4.69424745680253     -0.71778552038387
  H   0.88771852567934      1.98146264671764     -0.29123965005363
  H   0.89964337221780      2.56791326397048      3.38338407828213
  H   3.75011471482470      2.09240983307460      1.72911392607460
  H   5.28610743532585      3.07644745832940      0.37875033621901
