25
Coordinates from ORCA-job 18431optt
  Br  4.18846625571168     -0.37329060724031     -1.55936726988540
  C   3.00294273624055      0.15960972508232     -0.19568845618768
  C   1.75251583666344      0.62469584988177     -0.41117712636699
  O   1.21957688678325      0.71316211390597     -1.68303843747676
  C   0.70825248393404      1.92851341689347     -2.02331154830799
  O   -0.13420404966141      1.97906533548902     -2.87367154566345
  C   1.32246895669238      3.18358359976514     -1.42107376838190
  C   0.27833036871414      4.17404883491383     -0.89074570589798
  C   -0.19354421318708      3.94608734407553      0.54820870427455
  N   0.85227875907260      4.32723260942474      1.48983220334055
  C   1.29940400730646      3.53090262339883      2.35093151115489
  O   0.89611714785713      2.23506899581172      2.57928600408249
  C   1.58082470678112      1.35886412316634      1.73606189398140
  N   0.98087097286627      1.10973260938108      0.56402342843092
  C   2.87913693035899      0.93986833565633      2.10565473280402
  O   3.51720395206388      1.20804384627786      3.12846545405586
  N   3.45936200324699      0.07582488181286      1.12620371316395
  H   1.82971843371992      3.64651641266538     -2.27275389923182
  H   2.07784595754142      2.96350556369011     -0.66924514475593
  H   -0.58457725529138      4.14761772294966     -1.55966244767985
  H   0.70233340213304      5.17918550109461     -0.94083541681637
  H   -0.54295899231416      2.92315767811250      0.68698661808994
  H   -1.02617394284810      4.63391559942082      0.72370233256846
  H   2.09088137317058      3.84685601389788      3.02854421063959
  H   4.44692728244421     -0.06776812952755      1.27066996006549
