28
Coordinates from ORCA-job 18441optt
  Br  1.30089087997065     -0.78107794305722     -2.04143583806101
  C   1.80564535390387      0.42528862303843     -0.61211469765611
  C   2.82126468154073      1.37064234164671     -0.82672910801119
  O   2.97540974012206      1.91974888259794     -2.10400355871219
  C   2.39977314483575      3.10856678762920     -2.37045031471818
  O   2.44855946734023      3.53930156145785     -3.49276932959301
  C   1.73745578288580      3.89012062215093     -1.24068614786095
  C   0.36251438309548      3.38566271233159     -0.78411794932770
  C   -0.05284178209374      4.00888787906447      0.54538018992490
  O   0.66983920069685      3.50646238090372      1.66530268261840
  C   0.08443222676803      2.40956471326213      2.31749335411247
  O   1.05492792544531      1.48108253482017      2.73258193326796
  C   1.78700989352796      0.98827037516513      1.66219648041907
  N   3.05355519251119      1.56234237908915      1.51977336637334
  C   3.53831013663910      1.95657922368077      0.24825294565840
  N   4.48754404796922      2.83170780042194      0.10585884401258
  C   1.23584301632414      0.24936062018907      0.64904739709580
  H   1.63168060975769      4.90196415385185     -1.63332161378606
  H   2.42226501338809      3.92697530864936     -0.39504650830143
  H   0.34904165245862      2.30073446514650     -0.68285094038853
  H   -0.39095535323956      3.64658935611773     -1.53330149187613
  H   -1.12712477501433      3.86509384230394      0.70869524874328
  H   0.13313242245787      5.08602312416896      0.53100386019799
  H   -0.41476130506351      2.74058848079498      3.23414504970865
  H   -0.62916697666404      1.92039674367594      1.64485753288694
  H   3.29431650472464      2.20083958877481      2.26216372306376
  H   4.80855741791463      3.15483239864952      1.01543889116482
  H   0.33688149779723     -0.33554895652562      0.80263599904409
