24
Coordinates from ORCA-job 18446optt
  Br  0.91682123668122     -0.62501397107944     -0.21814409558991
  C   2.79025231340983     -0.38957053911970     -0.13773702099945
  C   3.57985872807003     -1.46465758054073      0.07904599415842
  O   3.08066885697205     -2.71955559753641      0.29970146860758
  C   3.36237930332256     -3.66863880026458     -0.71243280831947
  O   4.49478513605761     -4.42189770079542     -0.42303034432981
  C   5.70403090251254     -3.67409408062304     -0.47151641467698
  C   5.75030859208256     -2.50931674088815      0.50529719921846
  N   4.96462742049501     -1.37443894211979      0.07585761848516
  C   5.63642012816004     -0.12374069466827     -0.17593980006901
  O   6.87643824497250     -0.13554002460014     -0.18583458149284
  C   4.79595347360876      0.97940924390497     -0.37456057209364
  C   3.37448397314729      0.89800800130376     -0.34337228154021
  C   2.58437367714486      2.04269543884001     -0.53347581156416
  N   1.96360311541757      3.00792527293572     -0.70296801708268
  C   2.22115294259349     -4.58842736859141     -0.80647027354240
  C   1.28204386107091     -5.32169687330498     -0.90294248943359
  H   3.49111793858834     -3.12836141118390     -1.66136156877349
  H   5.86605964792410     -3.29554158335590     -1.48782567566674
  H   6.48623577054896     -4.39408736374737     -0.23161133766842
  H   6.77384155065783     -2.14215447670258      0.56299819758403
  H   5.42919847621604     -2.85620629279704      1.49266050095733
  H   5.27754346059223      1.92713587693343     -0.56061362988344
  H   0.44080124975358     -5.96723379199899     -0.97672425628475
