27
Coordinates from ORCA-job 18453optt
  Br  1.40393446121133      0.25069646435022      0.66543262229656
  C   3.24918709048500      0.60207378231754      0.21455285292321
  C   3.64102076718269      1.89674058408503      0.07823687501105
  O   2.74038881440739      2.97400043506337      0.19758762900150
  C   2.90619284794155      3.78403434033061      1.24599518082052
  O   3.33576525701281      3.46089719528514      2.31682174008690
  C   2.56753807820233      5.22800998779268      0.91735923396546
  C   3.86893891891885      6.05811535443010      0.95913456345012
  N   4.62064187954029      6.03099641212068     -0.29473895987282
  C   4.80657086896819      4.72164307710107     -0.93538139681648
  C   5.52252548796593      3.61332455962278     -0.12124110591753
  C   4.97013378773875      2.23374833756376     -0.33350103933121
  C   5.78360948716645      1.08431934782392     -0.55635549639244
  C   5.28663225384485     -0.17861137495282     -0.39358135878964
  N   4.00896209502694     -0.47986342374207      0.00936837872951
  C   3.54506520501829      7.46734275328781      1.25038496433949
  N   3.30829334388638      8.56192084907493      1.49673312914719
  H   1.90112140047351      5.59711705563027      1.69563066960339
  H   2.08894299604615      5.32643515032310     -0.05482700860900
  H   4.43857913159322      5.69303838374569      1.82481322584715
  H   5.51646936943267      6.47865260555855     -0.13997195324667
  H   5.36257993967652      4.91568130653737     -1.85372151226108
  H   3.82969862051305      4.36583607966675     -1.25205277922431
  H   5.49849930322411      3.89519975881496      0.94704654184907
  H   6.58270440037728      3.60311565517604     -0.38673267368365
  H   6.81511366873368      1.20869942173163     -0.87154934750449
  H   5.91889052541175     -1.03716409873917     -0.59644297542181
