22
Coordinates from ORCA-job 18458optt
  Br  2.00184091802866     -0.29466559755071      0.28952965324295
  C   3.15328458954056      1.09411887057274     -0.22294783304624
  C   2.89951871980761      2.41656321284320      0.01860524254609
  O   1.69883659738595      2.68827825300116      0.61831039519584
  C   1.89830850680557      3.10351886956443      2.00175752191464
  O   1.82101758737277      2.27098154534678      2.85502612756168
  C   2.25654913809745      4.48766888907734      1.97705925869330
  C   3.55873813095352      4.79041751202070      2.31784841746909
  N   4.30978717725781      5.62907852283125      1.60759434097490
  C   4.03658742712271      5.70613278454164      0.28448642689652
  N   3.77925192073020      4.76685289147440     -0.57468717887856
  C   3.89659897271777      3.39509230999784     -0.33291587045613
  C   5.13616806511131      2.81921852128423     -0.76598935034780
  C   5.30163254424016      1.50700236798850     -0.97926985781867
  O   4.27259015620301      0.60897668677718     -0.83408333414581
  C   4.12927221009928      7.04598778721007     -0.29065876112283
  C   4.20490461285333      8.15566445372976     -0.73900766762261
  H   1.88566848405059      4.99232657236155      1.09699413715842
  H   4.02200118000365      4.31177915009008      3.18098679498727
  H   5.96923978507330      3.48512006893792     -0.94712027437853
  H   6.21454102034538      1.02571850707323     -1.29262045431513
  H   4.26766225619926      9.13716782082659     -1.14089773450841
