26
Coordinates from ORCA-job 18456optt
  Br  2.00423503229848     -0.28758089071550     -2.42970444929330
  C   3.48958052843391      0.08144756224937     -1.22913215952703
  C   3.67157491979425      1.26541245263853     -0.64994303154789
  O   2.85373469964164      2.34950936208722     -0.83071855210202
  C   1.63187497690629      2.27519963021202     -0.11973448658457
  O   1.80122561577980      1.76309990314465      1.16109615860619
  C   1.19862045417432      0.50828262197433      1.46746801827992
  C   2.19552917271713     -0.43197876155604      2.15450274257629
  N   2.49744551749973     -1.64248353564396      1.37769732153865
  C   3.93613796890726     -1.96426298961234      1.25873848546289
  C   4.70181784557045     -0.96203858547184      0.44740124258925
  O   4.22104074215977     -0.99319766442364     -0.93764580577268
  N   5.07953920045853      0.20038709543537      0.95917795676826
  C   4.79160475402407      1.37200698988784      0.36214444484663
  O   5.26980125003879      2.47328794952144      0.63256300820318
  C   1.09250276816849      3.64597533675570     -0.05656415879359
  C   0.61024972577799      4.73960927281099     -0.01026772434778
  H   0.93012231828109      1.64548422156978     -0.67943371925245
  H   0.81743668801089      0.04764371117300      0.54930439919567
  H   0.34385427341728      0.70782288733189      2.11961401102555
  H   1.78789766753443     -0.73638755758046      3.12355984621864
  H   3.10192408837624      0.14854431335113      2.34262354493072
  H   2.12431237734724     -1.55582472182161      0.43871347194316
  H   4.00195452440444     -2.95639625630966      0.80822106541353
  H   4.36930534893813     -2.00756820213913      2.25864993328373
  H   0.20567754133929      5.72100585513089      0.04066843633902
