21
Coordinates from ORCA-job 18457optt
  Br  0.38263740249149     -2.35947596319837      1.86269550357786
  C   1.75647336102238     -1.61090521597572      0.80266095336017
  C   3.07223693996984     -2.23494912311863      0.71995158756461
  O   3.08333080820981     -3.41574507280143     -0.06403202679155
  C   2.32417856856195     -3.15902641294399     -1.21796047187342
  O   2.74158415785357     -2.45567396954904     -2.09002139609612
  C   1.02487513213687     -3.83119608798865     -1.16348954825483
  C   -0.20917988199242     -3.26353398423334     -1.23164185722052
  N   -0.75368902050241     -2.05004239514824     -1.46573850185558
  C   -0.52714303920159     -0.78419653874104     -1.19244765759587
  N   0.36967664740412     -0.04900175378150     -0.55387341507238
  C   1.51262631446857     -0.57773107535448     -0.04911887973086
  N   2.65728409986999      0.09949463725389     -0.48045378223496
  C   3.90512141477904     -0.29540235955644     -0.11737168781003
  N   4.16541702812114     -1.39902581340826      0.47272688634562
  C   -1.27369214816698     -4.26048588794985     -1.04658107375521
  N   -2.10093026827191     -5.04396995352499     -0.90229140831730
  H   1.06524471165308     -4.86833332793182     -0.85746393855950
  H   -1.30877655394108     -0.15091730748352     -1.61673131924185
  H   2.50338214053753      0.84834421692156     -1.13529879425454
  H   4.70734218499696      0.39377338851392     -0.36551917218370
