26
Coordinates from ORCA-job 18452optt
  Br  0.68935373301311      0.03398209722729      0.23994976750362
  C   2.66528449721607      0.10097371150059     -0.65315280827119
  C   3.36505497667040     -1.09239153650800     -0.59875471441492
  O   2.66210117442047     -2.23777258903830     -0.99104135641962
  C   2.29855757546219     -3.15338168398097     -0.07819674158877
  O   1.52889601693962     -4.01991864882218     -0.38771903421391
  C   3.06162817668707     -3.19496261858126      1.23546748306599
  C   4.39042462985945     -3.95735650982108      0.96895100299968
  N   5.08239037827918     -3.65206897930990     -0.26707809738948
  C   5.63691930522378     -2.31655199414412     -0.39711273285030
  C   4.73480336755413     -1.09361389391861     -0.29394714990028
  C   5.31051139048094      0.08533488400019      0.10982570287798
  C   4.57316102360733      1.31392266575256      0.15285046787209
  N   4.92855407289719      2.47364769390745      0.54699260484255
  O   3.28076443289188      1.24826669633570     -0.35710519485385
  C   3.26553362618561     -1.90409926685654      2.01502946721729
  O   4.19529632979845     -1.76492104084525      2.76886199254357
  H   2.44352532560629     -3.81862722179849      1.88815865465453
  H   4.16821882155677     -5.02470634247574      0.96565412378630
  H   5.05724152177007     -3.74382182819797      1.80581439594411
  H   4.50972035830829     -3.88244235601780     -1.06912699420855
  H   6.14497636130192     -2.27268907978348     -1.36430528749427
  H   6.40934477377147     -2.19984601735109      0.36811849653556
  H   6.34296083410264      0.11116535516286      0.43084906231376
  H   5.88679564217409      2.42452817131494      0.88029564861194
  H   2.47198165422141     -1.14664966775078      1.93172124083615
