28
Coordinates from ORCA-job 18454optt
  Br  1.54772752932462      0.73966824176235      3.31841419340845
  C   2.55360605745425      0.77789413077522      1.66186634675830
  C   3.43734129971699      1.81182955781294      1.46370769410145
  O   3.29489933056066      2.99366296883034      2.18780475097118
  C   2.34773500960267      3.85601540343615      1.70289190563824
  O   1.96047719998862      4.73433040723723      2.41925249391388
  C   1.89030911760304      3.70969373106382      0.24915650091685
  C   0.73082369400125      2.71862550140220     -0.02921970479788
  N   0.80183096516500      2.12528183395926     -1.37091382651121
  C   0.50053055880370      0.69442713882992     -1.48836926220069
  C   1.75002277466277     -0.21719415871852     -1.60607474824464
  C   2.69012487060284      0.13979901937612     -0.49612695486048
  C   3.78871939971174      0.91868025140749     -0.71542592015646
  C   4.29784856673207      1.75169569992832      0.32622873455519
  C   5.39276445073841      2.63496128998236      0.11559315638680
  O   6.07610166558297      2.68293454994432     -0.92289488187293
  N   2.19688142552617     -0.10635761009369      0.75926139011045
  H   2.73278697284341      3.41306699113941     -0.36980261940231
  H   1.58874259474952      4.71563581943036     -0.04122082506481
  H   0.73854703453428      1.91015322459037      0.69445347821667
  H   -0.21814686485538      3.24567079190560      0.11859114471875
  H   0.24734062439416      2.65605835013933     -2.02385889800036
  H   -0.12135682117517      0.54048000021280     -2.37391141110737
  H   -0.07554868656593      0.35133424726766     -0.62240672545329
  H   2.23182649859295     -0.06054728194765     -2.57261597707162
  H   1.41306653148079     -1.25556929142257     -1.53750430352930
  H   4.18856616382411      1.05870843742145     -1.71251281134532
  H   5.61643203639944      3.32006075432736      0.95163707992249
