24
Coordinates from ORCA-job 18467optt
  Br  1.25267858487737      0.39884355974356     -1.86359757639662
  C   2.71528903338971      0.25740501450063     -0.64060239487624
  C   3.46370980876830     -0.94383412041844     -0.58359534685287
  O   2.84453567652556     -2.15770672578381     -0.84080416709279
  C   2.26636247959480     -2.72932157296177      0.30358636052683
  O   3.19481539069163     -2.95873737107976      1.30397337690667
  C   4.18592135717390     -3.87954128595214      0.94339878802451
  C   5.34618581101473     -3.40858693424659      0.07384238040765
  N   6.19080986622542     -4.26571458092801     -0.37239739662104
  N   5.59647525944294     -2.08785541535170     -0.10446878233299
  C   4.77275442032393     -0.93405534793407     -0.12029005135951
  N   5.41639616378991      0.16217414135030      0.24035754505637
  N   4.66612500922008      1.30310932775158      0.16483905363406
  C   3.38035795664099      1.48790518415651     -0.32096315168430
  O   2.94267772750116      2.63179046944312     -0.42779714998325
  C   1.11528220362977     -1.90401346667534      0.88250227192222
  O   0.78648059131410     -1.97607213861142      2.03283780789864
  H   1.83583008042982     -3.67775220442209     -0.05463816365614
  H   3.73593874141001     -4.74639615743274      0.44432917073375
  H   4.63250084377089     -4.21874538857304      1.87953466279537
  H   5.92361225332138     -5.20498001338636     -0.08921527159166
  H   6.51092586334331     -1.91883132214784     -0.49997004221372
  H   5.14994981354156      2.14632285667304      0.42457494555256
  H   0.56138506405863     -1.30940650771361      0.13956313120250
