25
Coordinates from ORCA-job 18468optt
  Br  1.50142635885038     -0.12157895388364      0.01556675643684
  C   3.20764703439588      0.66821137743163      0.21164574753178
  C   3.38391570021257      2.02448890336822      0.03242658395205
  O   2.21469931071573      2.64252975916200     -0.27126776437605
  C   2.07632321234907      3.95723403640060     -0.71277270524146
  O   1.59412792619881      4.75898473191356      0.32535713674868
  C   2.45940193604464      4.82200632152462      1.44668533955999
  C   3.62418691059884      5.71818596735822      1.12331120955216
  N   3.72779630827701      6.92873009974567      1.52860826129378
  N   4.54182841220380      5.23953985935538      0.22303635310512
  C   5.22590826319787      3.97395375704689      0.08727324272438
  O   6.44900767564814      4.13959180715532     -0.06745655372158
  C   4.69079360118419      2.63066922653178      0.15101098219992
  C   5.74783697252388      1.67769701573236      0.31044340705729
  N   5.50030869813147      0.33130781608945      0.50679060452562
  C   4.27989282066281     -0.26851885062239      0.49149973851325
  O   4.15377062444007     -1.47759782816037      0.67372154723819
  H   1.28675993015351      3.95202641249514     -1.46199977355662
  H   3.00821670952524      4.33056506041629     -1.13335847060473
  H   1.88003375977749      5.25817759900931      2.25794592649725
  H   2.78605572121684      3.82297361313747      1.74576984960054
  H   2.92969334761749      7.16924509917312      2.10864971149522
  H   5.24508763273672      5.94458442798681      0.03194671823941
  H   6.76653856915962      2.00266563684311      0.40341266976152
  H   6.27374256417779     -0.29567289521070      0.65875348146743
