26
Coordinates from ORCA-job 18460opt
  Br  2.01278462627498      0.23340451468183      2.75726893398022
  C   2.63066238609431      0.73928249860001      1.00170920446655
  C   3.68761885579166      1.64857916910205      0.88041988189373
  O   3.68968855713969      2.76116696229167      1.72951754756171
  C   2.62951917164720      3.60281323731843      1.62699825315170
  O   2.41118044100352      4.37870587010781      2.51699227974562
  C   1.78986507420619      3.56336930555447      0.35745774492642
  C   0.43314807505611      2.84923639022711      0.51463081948075
  N   -0.18581138735546      2.74674407664360     -0.79345638773356
  C   -0.34137799037654      1.68291009857026     -1.46111892835421
  N   -0.10609472119718      0.33508864195003     -1.25751541370171
  C   0.69355041576417     -0.35964701743540     -0.24618389378720
  C   2.13552952071806      0.08810354015978     -0.15639365722912
  C   2.94265337774674      0.12255513550338     -1.23886353652260
  O   4.20337720740549      0.64123449299671     -1.19836510437322
  C   4.47152565959914      1.70163434709126     -0.28781686403308
  O   5.30669050938886      2.51357590485537     -0.62961573707068
  H   2.33817954001832      3.09929625886927     -0.45911083437695
  H   1.59537425007597      4.60294701733166      0.09414777752655
  H   -0.20981196409142      3.47627908345734      1.13632580327297
  H   0.55197618154637      1.90037931348318      1.03113244488234
  H   -0.80610043881105      1.81349292343797     -2.44198441186214
  H   -0.22580162457654     -0.18936597662480     -2.10649223174745
  H   0.62047660162936     -1.41944813657156     -0.49750346697928
  H   0.22729459441891     -0.24151218279622      0.73100386843612
  H   2.64690308088311     -0.19782546880525     -2.23118409155348
