21
Coordinates from ORCA-job 18471optt
  Br  1.22574367035882     -0.13439608854811      0.04594197922630
  C   3.09981214640421     -0.05072880974198      0.06114822847023
  C   3.79883394952620      1.09893031254706      0.06507622717943
  O   3.31485271302194      2.35638280532741      0.06139715821628
  C   4.43347772217594      3.24832026294116      0.06664729625903
  O   4.22368995751308      4.43097071424724      0.06527716757008
  C   5.62283662526547      2.44368419225052      0.07262623727673
  C   6.93983286061535      2.98468840911885      0.07536595365228
  O   7.97486427756949      2.33084188106613      0.07835736153776
  C   5.23798703647166      1.08201226996388      0.07234162994192
  C   5.90116458098591     -0.12888272413693      0.07650159575914
  C   5.14665003903579     -1.31300223015324      0.07456019054314
  N   3.77604813927320     -1.23423675587953      0.06680658607643
  C   5.62446808463187     -2.66373370765916      0.07969074327627
  O   4.80607126445930     -3.62242514388004      0.07795369740836
  C   7.04968026263085     -2.86218733084642      0.08571189761120
  C   8.24269741105710     -3.02318442853505      0.09056134304289
  H   6.97921446320468      4.09000585582858      0.07414690768138
  H   6.97989819092947     -0.17843972283848      0.08169239856319
  H   3.30796584188491     -2.13528903570567      0.06616532914246
  H   9.29621076298471     -3.16133072536620      0.09503007156548
