24
Coordinates from ORCA-job 18473optt
  Br  0.61095236236662     -0.34127553495031     -0.71993119734453
  C   2.48491753367767     -0.05449456055867     -0.84578861379288
  C   3.34543812155098     -1.12010381537388     -0.87714494956903
  O   2.80251125717041     -2.39189954966937     -1.07495613639436
  C   2.59461172211585     -3.20422021020247     -0.01423025978777
  O   2.01062239809101     -4.23511626488115     -0.17361199120421
  C   3.13215262432477     -2.74370207433138      1.32722757922231
  C   4.68715105167304     -2.88157583561265      1.37722318816694
  O   5.21438279358142     -3.31432149557009      0.14294506130061
  C   5.55739055326834     -2.26681313324916     -0.78710623768505
  C   4.72941889388486     -1.02124788028804     -0.69104083044731
  C   5.36654322210568      0.19379549163992     -0.35047703297558
  C   4.79118570886553      1.46970914555729     -0.29376928236845
  O   5.30326308027646      2.54326161666756     -0.00363576951139
  S   2.99797735576993      1.60274776486384     -0.74738115983074
  C   5.08801909351330     -3.85269804202741      2.40283818432895
  C   5.39198789228558     -4.62688031298894      3.26469581109352
  H   2.66772162974448     -3.37784910143296      2.07691955952373
  H   2.84643760752826     -1.70624282139760      1.50114360404976
  H   5.11116781725830     -1.91010454886665      1.64739032695099
  H   5.45641356163146     -2.74886387730071     -1.76137411601617
  H   6.60779683996859     -2.00399254600141     -0.63394391511723
  H   6.42735028628981      0.17485235614031     -0.12478344242438
  H   5.66558659305758     -5.32296477016605      4.01979161983228
