21
Coordinates from ORCA-job 18479optt
  Br  1.09035143879565     -0.17079372092236      0.58346841798191
  C   2.96368268359693     -0.15580343463050      0.30614506925768
  C   3.66167237232982     -1.32943090145644      0.16253526842210
  O   3.02516898176041     -2.54071834620489      0.23460096593989
  C   3.78898730947865     -3.53485449470294     -0.39730694569046
  O   5.03774505671154     -3.68176767315343      0.18468165762212
  C   5.86797011918882     -2.53609893404835     -0.01993650396089
  C   6.72834923812223     -2.35709179819052      1.21845285235024
  O   7.71634374993606     -1.61710585825661      1.20264941229184
  C   6.68995251338956     -2.73801803341704     -1.24668600998722
  N   7.27464356768382     -2.94259930789820     -2.21146912355756
  C   5.03912525006894     -1.28414627659263     -0.09828407979467
  C   5.60856908924384     -0.00698484104839     -0.31688384138554
  N   4.93217301729184      1.11915634486958     -0.16149818708739
  C   3.64573425311136      1.06355678973754      0.17879975442843
  C   3.05810497625635     -4.80977089619777     -0.25144809056428
  N   2.48745589280049     -5.79866752179229     -0.18425287046859
  H   3.88321927444331     -3.29515744958662     -1.46559526635362
  H   6.23528071789876     -2.73167075980915      2.12755829927342
  H   6.65352158745384      0.06677592850913     -0.59343986063619
  H   3.11694891043771      1.99719118479190      0.32190908191879
