24
Coordinates from ORCA-job 18472optt
  Br  0.81439415851582     -0.25528889899385     -1.00050583064963
  C   2.52902860630967      0.18057344969723     -0.11734104256431
  C   2.55544671401390      0.23396064792079      1.27795544281072
  O   2.02370363013857     -0.83134895898198      1.99410342400524
  C   2.88884188146324     -1.58143766085843      2.80157123518461
  O   2.41491082030070     -1.61378122735117      4.12312824656158
  C   2.63792320345167     -0.46895344883589      4.90224191084779
  C   2.26224920175058      0.85123109562803      4.21677506836678
  O   3.30219958688248      1.23952040482071      3.35043549033613
  C   2.99262799880038      1.37014273440287      1.99800392758202
  C   3.26689682588158      2.58060723046887      1.42873522404839
  N   3.09300635523688      2.75525151383819      0.05243290898906
  S   3.46179912568671      1.38285205544997     -0.88371031062078
  O   3.01990307659150      1.70451502334916     -2.21103296702347
  O   4.86205375622081      1.10375422226390     -0.68519517955150
  C   2.10122841282638      1.89146627545841      5.25643957045078
  N   1.98084775001617      2.66827243414494      6.09080312812180
  H   3.90536352567171     -1.17882454927964      2.74884510616251
  H   2.86439770913784     -2.61961587016938      2.47072823671008
  H   3.69555186865691     -0.38370181918732      5.18153815944622
  H   2.04278825046992     -0.59528906230262      5.80670035062818
  H   1.31439647772493      0.74613153763675      3.68426958865547
  H   3.65321843186341      3.39918550491116      2.01632403329046
  H   3.47922263238814      3.60277736596929     -0.34324572178819
