25
Coordinates from ORCA-job 18476optt
  Br  3.22892729019720      1.05341268233934      2.06444637628164
  C   4.24844878441977      0.09900313443493      0.79323501803634
  C   5.62240235473064      0.33885737293797      0.62595024452604
  O   6.24080577524080     -0.49592244330549     -0.32274364883902
  C   5.55291278211649     -1.48290610904773     -0.88525503046687
  O   6.37125914166600     -2.25813273271211     -1.63368166366497
  C   7.69964611146261     -2.34973620726600     -1.15294635564843
  C   8.53338791548494     -1.07930163979296     -1.36159530822096
  O   8.55772786122719     -0.54116313237300     -2.43503328855564
  C   9.38393241706281     -0.63733997689854     -0.19240559069834
  C   8.59479264747620     -0.13580527878823      1.03011225928358
  N   7.90029027833408      1.11127712859689      0.77066577704980
  C   6.53964771786551      1.29403702015820      1.15144974464609
  N   6.30662710270830      2.35745867361859      1.86523400797879
  N   4.32533323068527     -1.73757720202768     -0.79273517954436
  C   3.53209874282471     -0.89062939000989      0.05520616756555
  O   2.32860099592013     -1.09866717342920      0.11983063739260
  H   8.16853229197301     -3.14465857429232     -1.73500944277719
  H   7.69787488885554     -2.64087769426250     -0.09888679667102
  H   10.05244994959957      0.14727076626833     -0.54687437778491
  H   9.98970839872352     -1.49869916485869      0.11767850198132
  H   7.88324087078535     -0.89325424115446      1.35867195714770
  H   9.30978310687662     -0.00995602487497      1.85036808077561
  H   8.39810926684160      1.91331930432857      1.13106869076945
  H   5.31146007692200      2.50299090241098      1.98324921943718
