25
Coordinates from ORCA-job 18477optt
  Br  2.18811104893903      0.26247937047428      3.64694530799478
  C   3.04710769827035      0.65016287354450      2.01242171651841
  C   3.16366766487646      1.90371233575768      1.50322591557341
  O   2.84152697108546      3.02781776217514      2.24495778551589
  C   1.82081250842161      3.81403995980360      1.81591423207618
  O   1.80413762728284      4.95502955280020      2.17838345506504
  C   0.62120165209935      3.21952515118887      1.07136683691785
  C   0.73308445055629      2.46931563650047     -0.25620570255255
  O   1.54179923936254      3.17698165267272     -1.16676927035898
  C   2.01404457508903      2.41514050901903     -2.26762446358657
  C   2.77742898579349      1.09976321291964     -1.97658381813771
  O   2.70337445430689      0.23856518108366     -2.86677976675382
  C   3.37161825432549      0.93803374607988     -0.69393498170571
  C   3.54181663877681      2.04838731352604      0.17016279083965
  C   3.41399580423018     -0.39616122810657     -0.11225208828699
  N   3.42041051681855     -1.53474201612912     -0.65753237020446
  O   3.43852447211264     -0.42835809048476      1.30360432795850
  H   -0.03711387358564      4.07770499933786      0.94898640036225
  H   0.14769149708543      2.53498278155246      1.78440202485204
  H   1.11243686990975      1.46025546085146     -0.09670544037260
  H   -0.28366754526047      2.37470982849468     -0.66217206443102
  H   2.64939329808416      3.09370544910690     -2.84148034251106
  H   1.17928936483564      2.11357821142578     -2.91062080569597
  H   3.70154621540665      3.04444037947223     -0.21370802460942
  H   3.42676161117743     -1.38707003306666     -1.66600165446713
