27
Coordinates from ORCA-job 18470optt
  Br  1.19918830180151      0.00220519931645     -0.00625476295677
  C   3.09812784426097     -0.06209629337814     -0.01596869599867
  C   3.73936085299823     -1.30694936010262     -0.04898946501430
  O   2.98614686525293     -2.42459674674548     -0.01661813917380
  C   3.71212878934688     -3.62954807942439     -0.31328818502364
  O   4.89956154664066     -3.68037770175270      0.35760510862360
  C   5.84800338856065     -2.65464516411725     -0.18713950848602
  C   6.35421431146014     -2.91331280875186     -1.56084190095589
  O   7.19089639388793     -3.83303722455287     -1.79803722570674
  C   5.13987878803492     -1.33544189275366     -0.07802034364117
  C   5.84594702115959     -0.14168292199162     -0.06133113300999
  C   5.20588337468813      1.09308321135709     -0.03176870601679
  C   5.97967351697399      2.38119019912476      0.01131103523996
  C   6.11716863618375      2.95259376811575      1.43501446491445
  C   6.96577927458162      2.12764550807394      2.29482057460569
  N   7.65438234048561      1.50146573122189      2.96408462467108
  C   3.81136548436202      1.11826129540253     -0.01520190533761
  H   3.87035206061294     -3.65726355331151     -1.40016839268153
  H   3.06825015300302     -4.44003072945488      0.02015148837622
  H   6.66429913571108     -2.72592842330341      0.53864295851038
  H   5.96233560988681     -2.25925625467953     -2.35562230397545
  H   6.92961686585393     -0.19604670612314     -0.08622399184005
  H   5.47542006486113      3.14212316790472     -0.58935650982324
  H   6.97492507891204      2.23798811924630     -0.41234279070222
  H   5.13196022826505      3.02546835577571      1.89908748246395
  H   6.55105836048641      3.95470223900005      1.41029243789151
  H   3.27507571172775      2.06048706590390     -0.01183621495296
