24
Coordinates from ORCA-job 18480optt
  Br  1.50419091959281     -2.49693337669492     -1.28229915349479
  C   3.14070137798713     -2.19786931952045     -0.32777100564706
  C   3.29396537248430     -2.73332471711335      0.91510661393280
  O   4.32663975642524     -2.29325762318101      1.68782355589943
  C   5.52174880823402     -1.94883949405910      1.02627869622527
  O   6.53344992010098     -1.89222922651042      1.69536886281475
  C   5.35652764003491     -1.74523242599277     -0.37138227700357
  C   6.55921959946401     -1.98437469784564     -1.21396627447570
  O   7.11396778155432     -3.31617252163223     -0.95255717814826
  C   6.33806629809111     -4.26381336837518     -0.38808433209506
  N   6.76857404758616     -5.05336573066187      0.50281289223221
  C   4.96308656418119     -4.54723730525600     -0.96985330939466
  O   4.74722401950881     -4.27443738676051     -2.12454928721498
  C   3.96213167473056     -5.35134328689289     -0.14763603351613
  C   3.61530019176742     -4.96075982711472      1.29113828544606
  O   2.69939493953247     -3.85129608248748      1.38638057294159
  N   4.14679783015847     -1.62960960249218     -0.97442945003301
  H   7.40072020990104     -1.32842657209565     -0.98988864396771
  H   6.28276098592428     -1.92060488209325     -2.26491453139431
  H   7.70575985453408     -4.75913946030779      0.78110013523067
  H   4.38928813059767     -6.35807708742695     -0.08690308524410
  H   3.05150192239185     -5.39646534904859     -0.74726719387659
  H   4.51787836126248     -4.73737636938256      1.86217429285256
  H   3.09310379395464     -5.78981428705444      1.76731784793056
