19
Coordinates from ORCA-job 18495optt
  Br  1.44506356393133     -1.36704794707523      0.16349454685849
  C   3.26252517705384     -1.79056855528106     -0.36968179882312
  C   4.42581864080184     -1.75653834503514      0.56193426335517
  O   4.75204649689439     -0.57184604505244      1.29509266401948
  C   5.45166176959900     -0.03124892646489      0.22047589056712
  O   5.95584648036977      1.03911492194881      0.18219197422297
  C   5.16283694282187     -1.23792117200791     -0.67675151463983
  N   3.88647448248958     -1.13735550273782     -1.40028295260156
  N   6.25378535444390     -2.09597727011908     -1.05732585027951
  C   5.81409072415215     -3.24427759473428     -1.27308210939612
  O   6.63087245883527     -4.35021706564181     -1.13595137648552
  C   6.20705463927415     -5.32634959901765     -0.31280375554170
  O   6.74021006207824     -6.39887819728054     -0.32793514489646
  N   5.09906644706781     -5.12004496481464      0.52281898717488
  C   4.32686008152003     -4.07678439566042      1.08283443655105
  O   3.24482473492638     -4.31810599615919      1.51955902260224
  O   4.96711326154357     -2.90239917278097      1.18699681290007
  H   4.77078596793264     -3.49311935556452     -1.47600665983794
  H   4.73906271426419     -6.01643481652117      0.81742256425029
