22
Coordinates from ORCA-job 18494optt
  Br  2.26414488926066     -2.39462165495169      1.95537232221190
  C   3.90474255740493     -2.13862421949678      0.97415128554068
  C   5.08160974435928     -2.43385903368542      1.56457334425816
  O   6.24314115888264     -2.09353230350611      0.94930447566090
  C   6.22330714045820     -2.16566065528629     -0.46692518473207
  O   7.27893133500869     -2.36737047742699     -1.04008880122132
  C   4.92905843468023     -2.02370644530591     -1.01502372088721
  N   3.79812872743209     -1.81744843832008     -0.31253646669933
  N   4.75756022166136     -2.28867138789081     -2.40637679687702
  C   4.47697705825663     -3.46679350310297     -2.72029229061033
  O   4.35445890478854     -4.57546277382106     -1.90713314333883
  C   5.47573469347619     -5.04873194243342     -1.17657636705161
  O   5.54246257644138     -4.64981326092069      0.15057198087440
  C   4.52791121823598     -5.09024272080892      1.01504425749233
  C   4.80881922216763     -4.59008031975322      2.43861036218348
  O   4.66172166039651     -5.30160915878256      3.38774351458607
  O   5.23436526129295     -3.31335940156840      2.61665763041590
  H   4.23655544227580     -3.71649127445249     -3.75171936627761
  H   6.39769304764334     -4.67898833882277     -1.62637113275373
  H   5.39828450623613     -6.13984673200067     -1.23249070574692
  H   4.51054697571314     -6.18220040273892      1.08165401542884
  H   3.54484522392762     -4.73388555492380      0.69085078754331
