23
Coordinates from ORCA-job 18493optt
  Br  1.96374390388569     -1.03076965909978      2.21530197626403
  C   3.39336678426595     -0.46797067345323      1.11863380715046
  C   3.24033094762502      0.29297169377014      0.03289811273197
  O   4.43506309320220      0.73712486223446     -0.57456675028867
  C   5.58313058960081      0.00977031325451     -0.52702386593339
  O   6.58069467174664      0.41618219825941     -1.03989801665428
  C   5.38318605260665     -1.30435893952558      0.17399682504458
  N   4.59589081922773     -1.14897664932890      1.32164621586441
  N   5.83717407141043     -2.38612091029238     -0.31579142637527
  C   5.06215839397111     -3.55001699101392     -0.13269344778201
  C   3.70455573316267     -3.49813558629219     -0.46274659092990
  N   3.13517249445360     -2.33642055129583     -0.74896722106577
  C   1.87689942015404     -2.09801800182978     -1.08201570230577
  C   1.38951070361745     -0.76676627290250     -1.17031548404104
  C   2.01629920102555      0.38978106260919     -0.74491854087002
  C   5.71631289502686     -4.78602600992515      0.08666523945082
  C   6.26701110411911     -5.83923105686539      0.29827845694522
  H   4.50843416424987     -2.00121876328848      1.86120670930936
  H   3.15647046527344     -4.44425971732017     -0.49676931458710
  H   1.17792364437219     -2.91693307219845     -1.28458186073074
  H   0.41063036639923     -0.65511393149136     -1.62939553451204
  H   1.60973659865404      1.35769855832399     -1.01209682546109
  H   6.75630388194969     -6.76519190232860      0.47315323877627
