23
Coordinates from ORCA-job 18492optt
  Br  1.80483355488556     -1.95767161104052      0.55845157102674
  C   3.65266937889195     -1.77619909555045      0.01080096735295
  C   4.63169428957812     -2.46329762193343      0.77426339046073
  O   5.94096413292532     -2.01907016847021      0.57643247712266
  C   6.19141552761303     -0.98383543462358     -0.30248496327415
  O   7.14545848259269     -0.29101112207499     -0.12379142140575
  C   5.21673428577343     -1.01323045413958     -1.45120813235215
  N   3.87340217192608     -1.12133822306578     -1.06969418157970
  N   5.85653175746561     -1.95084171854151     -2.28185025639703
  C   5.38932772049774     -3.15417858777523     -2.20718792990353
  C   6.28346928255589     -4.20196491851503     -1.77404338236112
  C   5.69957370124350     -4.78568972365440     -0.69154623791087
  N   6.18834096879840     -5.05040752363545      0.54570046579251
  C   5.27174494700337     -4.74802008549340      1.60518699794145
  C   5.09271345439939     -5.70219055300126      2.65146660440976
  O   5.75245986676895     -6.71352443603994      2.84574843845864
  C   4.43329104822862     -3.62916424145485      1.51352709027874
  H   4.31878121776168     -3.34208939104874     -2.07165843490937
  H   7.34066710728766     -3.96720776024171     -1.78208131153774
  H   4.61892010455505     -4.87279684696238     -0.70838321653891
  H   7.17684412634938     -4.91357242024191      0.70347120295479
  H   4.26600811345914     -5.43731143988916      3.34348978885717
  H   3.48015475943931     -3.69938662260641      2.02939047351418
