22
Coordinates from ORCA-job 18503opt
  Br  0.94038680087089     -0.42825741193977     -0.89132688056091
  C   3.01419463350842      0.04181581168911      0.25312189407330
  C   3.74947334783744      1.17050907236824      0.20598251591350
  O   3.33330053767196      2.48097419031543      0.22597014940280
  C   4.44629924538157      3.28977277342033      0.18440506161957
  O   4.36024727490380      4.49777321545887      0.19471371471643
  C   5.60645803762728      2.43315822483095      0.13703086428100
  N   6.92885801057024      2.88720172874971      0.08538497240905
  C   7.37036854868205      4.16174019851312      0.11465106429659
  C   8.74751168447794      4.10087111352104      0.03999630052843
  C   9.03695418486280      2.73128064199111     -0.03130670573428
  N   7.93013765299453      1.99874660983207     -0.00405064837994
  C   5.16152222994624      1.14006323113388      0.15119983454110
  N   5.79571260944223     -0.06576679083435      0.12942447405660
  C   5.10871487687370     -1.26636676220320      0.15920883800514
  O   5.67562380902021     -2.34181012632663      0.13161203891442
  N   3.74249845640749     -1.12772284265429      0.23296594240286
  H   6.66474220557212      4.97211801539035      0.18242490238616
  H   9.43376964378326      4.92919327121544      0.03672303074894
  H   9.99558021974310      2.24325755830843     -0.10324452097213
  H   6.80496766284267     -0.09129124360814      0.07342398940929
  H   3.22767832697956     -1.99626047917184      0.19068916794209
