23
Coordinates from ORCA-job 18505optt
  Br  1.06741509242652      0.16140629902866     -0.77450518246323
  C   2.87018237804080      0.15723604964713     -0.20228041995724
  C   3.53712444243449     -1.07124422527580      0.03054795745971
  O   2.71410402052611     -2.15494965395380      0.36548745760440
  C   2.80915113237527     -3.37169521908357     -0.17486827709344
  O   1.99001747499593     -4.21596661395217      0.06028730611371
  C   4.03291177480559     -3.62364090862113     -1.03799985848099
  N   5.23040754260610     -3.50073415487334     -0.24126527479809
  N   6.03486136311381     -4.55022094993297     -0.02066158463236
  C   7.01785779774539     -4.05839923498796      0.72069472924507
  C   6.84075936634257     -2.69243719954704      0.98987310262573
  C   5.65634020171587     -2.36058568987680      0.35187623067232
  C   4.92914087895906     -1.11179936023711      0.18933499459700
  C   5.63079126761746      0.08068484648172      0.15768276296040
  N   4.93490337035726      1.28163731191044      0.07785407651523
  C   3.56408253309861      1.39459935042173     -0.22404673776389
  O   3.11414157579427      2.51612564285000     -0.46087152302980
  H   4.06104006068388     -2.89344285515843     -1.85136461957765
  H   3.98947356791866     -4.63803297380871     -1.41890246546414
  H   7.81489317141522     -4.71101045821424      1.04152230903187
  H   7.45213015719234     -2.03718820165978      1.58539801298149
  H   6.70873709950036      0.12185251580983      0.12620443627269
  H   5.43053373033431      2.15380568303338      0.00600256718121
