22
Coordinates from ORCA-job 18504optt
  Br  1.14210873064940     -0.07777381171094      0.19492988980897
  C   3.02199041832979     -0.04974963043501      0.03540038069742
  C   3.71100410311400     -1.22136172051267     -0.04139185593629
  O   3.15173126887439     -2.48603305145199     -0.03475296463300
  C   3.93527594332337     -3.58343644584845      0.00098834200730
  O   3.42515323690106     -4.66918432740311      0.01042582106272
  C   5.46632122191204     -3.47271536565170      0.06148843069622
  N   5.95880604379793     -2.18975458118474     -0.35297232484742
  C   7.26589530751721     -1.74206930141018     -0.28206483467282
  N   8.33506440738650     -2.42917232248752     -0.19264715067911
  C   7.21496272813650     -0.20977414591691     -0.28118737048604
  C   5.74115629666455      0.10329934075441     -0.09686486977670
  N   5.13872331461087      1.26428505448940     -0.04487244290521
  C   3.73728890609018      1.19880027179342      0.04133656011961
  C   3.04774628083959      2.42328166272369      0.09824892533141
  N   2.49652120607399      3.44322536556477      0.14863065744873
  C   5.10097953085887     -1.11505954794858     -0.07866871333522
  H   5.84282135861733     -4.27747992797234     -0.56934939997756
  H   5.74638189914599     -3.69855103956532      1.10083922415096
  H   8.12996343179216     -3.42779184931618     -0.18312455281996
  H   7.59088113762769      0.17743883719236     -1.22999381952144
  H   7.85122322773647      0.18157653629764      0.51160206826744
