21
Coordinates from ORCA-job 18514optt
  Br  0.96358735819984     -0.37720162492797      0.43360419493127
  C   2.84288976658308     -0.29555421660871      0.36486795997300
  C   3.60368237333969     -1.32893033433661     -0.03481900843870
  O   3.03662304197888     -2.53302788830478     -0.36078761726904
  C   3.90017130314382     -3.27010384033651     -1.17819989520902
  O   5.11182707255832     -3.52737741226709     -0.52769765458314
  C   5.80442984446672     -2.38781575558453     -0.14996400957828
  N   7.04475445908830     -2.47811175573634      0.14297763060699
  C   5.02187229535517     -1.18122635072388     -0.06860040893357
  C   5.57620436138229      0.10599817453774      0.18926762282512
  C   6.95518699660054      0.41834769571409     -0.10326634297048
  O   7.62831008532340      1.32753187951845      0.35735194175378
  C   7.67335484983946     -0.33929011062490     -1.22372577046592
  O   7.21089054850117     -0.51634484750650     -2.31897112943405
  C   4.74591919030517      1.16267358868529      0.70585787640506
  O   5.03853985979327      2.26617167407376      1.06435554952723
  O   3.34884051641776      0.87253104048462      0.78702858883556
  H   4.09164099876100     -2.71726282995420     -2.10517893120258
  H   3.42533638681081     -4.22827623604881     -1.36832992404732
  H   7.36689527650220     -3.43042998376372     -0.01378315708407
  H   8.73104341504904     -0.55030086628936     -0.98798751564184
