25
Coordinates from ORCA-job 18518optt
  Br  1.41717698832447      0.07165692389545      1.10658500995938
  C   3.03881701542609     -0.05667475052347     -0.16080879977319
  C   3.68814478590181     -1.28533933944081     -0.21494996690741
  O   2.94975080322356     -2.44223245600204     -0.49122770008880
  C   3.50897834676824     -3.63742316222568     -0.31754328804351
  O   2.89695556213983     -4.64426394610501     -0.54828540828880
  C   4.93399092598206     -3.65085950386789      0.21143752561755
  N   5.69043424241610     -2.53221061237402     -0.31478723548548
  C   5.06492819551136     -1.30570351638042     -0.14510263202235
  N   5.82160122371181     -0.23457749717513      0.06879358984199
  C   5.19920238476976      0.96385406759754      0.12647050697143
  O   3.81509874399059      1.03680304310150     -0.07762117520747
  N   5.74399290027226      2.09925709281154      0.32472078482465
  C   7.17791776857646      2.07801829996723      0.49903814709034
  C   7.66209469828604      3.50978804871870      0.63887017701013
  C   9.12753598305190      3.68736905048631      0.86583203617161
  O   9.93862513085288      2.80557856433875      0.97483936852240
  H   5.37743164662154     -4.59526102324995     -0.09256633382776
  H   4.86019280790619     -3.63234230930447      1.30942389245495
  H   6.66262299703436     -2.49218731708458     -0.04130591084180
  H   7.68752437194410      1.59469258845218     -0.34321573126437
  H   7.47266481861838      1.50231820986374      1.38471203506289
  H   7.13957743089083      4.00911726401032      1.46412841894113
  H   7.39056440591305      4.09517113021986     -0.24798702062842
  H   9.46217582186615      4.74545115027035      0.93754970991090
