27
Coordinates from ORCA-job 18524optt
  Br  1.24213024887914     -0.01411693354762     -0.36915702971816
  C   3.13124603429411     -0.03185985178607     -0.22803108187283
  C   3.82279909922106     -1.20557051273988      0.03940911663144
  O   3.09165659191021     -2.37642321417671      0.26830727780170
  C   3.26541792721350     -3.36073327927746     -0.67558507584678
  O   2.53297745511007     -3.46217386222494     -1.61220356630802
  C   4.41262315350344     -4.30707079559798     -0.36679982262409
  N   5.73086984547015     -3.70035063196822     -0.37934909180655
  C   5.89236400168410     -2.55118792818155      0.52715597020694
  C   5.20781454197520     -1.26965443581222      0.11556453393038
  C   5.93966668328395     -0.06220172743384     -0.13171440342915
  C   7.34568174948735      0.17283547926873     -0.19321622422841
  O   8.29602582348752     -0.61973312883683     -0.03927492689475
  C   7.56626152062966      1.64717431501256     -0.55570570388306
  C   6.17419328285873      2.29767439551387     -0.54154951174607
  C   5.21806654835214      1.13454313391833     -0.38518656445412
  C   3.85583516779192      1.17166709477700     -0.43522972744586
  H   4.37376051472351     -5.12071802703736     -1.08991383562635
  H   4.23546665998222     -4.71506304221578      0.63333758336468
  H   5.96356793690098     -3.40277305477287     -1.32090905036095
  H   6.95692613877132     -2.34685122763232      0.61843749437313
  H   5.51935404993637     -2.88234779936594      1.50373747628261
  H   8.03676830990239      1.69659931290191     -1.54311380103243
  H   8.26539491924985      2.10301902622847      0.14909502707651
  H   5.96046376504991      2.87231687095830     -1.44484550271738
  H   6.06568253106793      2.98155537785319      0.30425274378166
  H   3.31998549926315      2.09244444617526     -0.62951230345410
