23
Coordinates from ORCA-job 18520optt
  Br  1.05718476281676     -0.19798081498230      0.28606229072216
  C   2.94054970374459     -0.15743750390944      0.06669112480357
  C   3.67797136440636     -1.30976704565194      0.22348960962935
  O   3.05469344722387     -2.45915879832114      0.61893269971922
  C   3.63602965890233     -3.69236927530016      0.21849632284327
  O   3.23785582781620     -3.91325954043814     -1.16823286394608
  C   1.91792259975746     -4.04833688159233     -1.37296612470495
  N   1.37996205007309     -4.21819437762568     -2.49966101948368
  C   5.08385824793712     -3.67679258444454      0.36197132402279
  C   5.79995311768177     -2.46996990963415      0.17770063244890
  C   7.18538447284557     -2.74367037684165      0.18648701535186
  N   7.56315515057469     -3.99085714886311      0.32493487953324
  S   6.21402431589696     -4.98967508159832      0.43390112217416
  C   5.08580880748813     -1.25042649148331      0.04096449247554
  C   5.61059698190590      0.02246501450840     -0.26332414062781
  N   4.89539191870409      1.12572699720521     -0.38775906328833
  C   3.56986710825408      1.05080242225356     -0.23138625852169
  H   3.12666574994005     -4.45364634058300      0.81448445638413
  H   1.30521040198003     -4.00554032518636     -0.47190284971593
  H   2.09859260055695     -4.21109050859844     -3.22507849177752
  H   7.95857084474076     -1.98724708388823      0.09703464706869
  H   6.68182776272321      0.12584141060445     -0.40712105014048
  H   2.98992310402995      1.95758424437066     -0.34171875497042
