23
Coordinates from ORCA-job 18525opt
  Br  0.95576062206168     -0.25940090813474     -0.55533872631816
  C   2.81321021761463     -0.17934328446080     -0.27094752910374
  C   3.54987209052272     -1.22149344649264      0.19721083568095
  O   2.90962280920737     -2.41325504007268      0.51667488591178
  C   3.34283105899066     -3.57930038075418     -0.02189607194807
  O   2.79858939984704     -4.59878355932261      0.29128664664580
  C   4.49772529787701     -3.49859759027101     -1.00541419099982
  N   5.77753125445371     -3.35787389340713     -0.30367550339701
  C   5.71770220162218     -2.31585733442745      0.74458476507523
  C   4.93894610700127     -1.09936845128257      0.35339462580676
  C   5.49668732671849      0.11884291931001     -0.09440921034184
  O   6.88161902906430      0.35052897787382      0.01107130908896
  C   7.70854114179876     -0.27429560241196     -0.80946059901585
  O   7.44256063414781     -1.12359671594511     -1.61410333947426
  C   4.76240312382900      1.22081776857553     -0.54898319998307
  O   5.14936233778251      2.30724325201447     -0.93336785865201
  O   3.34505581764431      1.04177449506799     -0.53014121711294
  H   4.29961385136214     -2.66413727696140     -1.69054443475916
  H   4.49506835876474     -4.43186894332297     -1.56461733500723
  H   6.45535406392184     -3.04864943183637     -0.99344699274852
  H   6.74120566421906     -2.05796066942233      1.01361568579347
  H   5.26193164948794     -2.77505621963800      1.62707903706729
  H   8.72880594206011      0.09163133532235     -0.63157158220850
