18
Coordinates from ORCA-job 18523optt
  Br  0.90824281890557     -0.37898191229243      0.40274234003106
  C   2.77705471427277     -0.25350933587514      0.27566640927295
  C   3.60903632836432     -1.29339617076618      0.22025411240388
  O   3.31496052093729     -2.61027263115459      0.25399002753969
  C   4.52084250638770     -3.33017071495658      0.05138760269684
  O   4.48890161460521     -4.52835946698491      0.01656529399584
  C   5.59156424492297     -2.36109264817815     -0.05818255009953
  N   6.86545255150463     -2.77979409803844     -0.27199629628464
  C   7.88523889238920     -2.07150262530633     -0.00541942110632
  S   8.00968374292793     -0.60128955909672      0.99133079781105
  N   9.69771275204842     -0.73691043997673      1.28114270002528
  N   10.34018365705734     -1.58548485881716      0.66260581294352
  S   9.51398796980789     -2.58373919271801     -0.44129110921140
  C   5.00922754334661     -1.06849281024277     -0.00481998881138
  C   5.31731196045673      0.23107206848477     -0.44189446241788
  N   4.50492743271219      1.25754363448062     -0.42002245173773
  O   3.24689722182246      1.02263512857665      0.22004795224620
  H   6.26677352753071      0.47074563286213     -0.90710676929742
