23
Coordinates from ORCA-job 18538optt
  Br  1.40301007310388      0.07664393605973     -1.05046498908937
  C   3.00166143833244     -0.12868863420703     -0.07829509224828
  C   3.88248925318921     -1.12501738671600     -0.32786314233787
  O   3.68861417321237     -2.09108020046953     -1.25239364949764
  C   4.80645011913853     -2.97161170360916     -1.22463264653188
  O   4.84667755596889     -3.91630033265076     -1.99804621991022
  C   5.69484927354085     -2.47004015312199     -0.25870643585512
  N   6.94173958440263     -3.07581531265746     -0.00151097681036
  C   7.74460475691601     -3.46560775194695     -1.13762455935810
  C   8.65370521134087     -2.40367587102683     -1.61501564189049
  N   9.39239412709726     -1.60898594794073     -1.98596916176265
  C   7.37641281031360     -3.38085164087878      1.26350111705662
  N   6.77868539397820     -3.22564658830750      2.37327439356986
  C   5.15295979287625     -1.29279446635773      0.30941062680598
  C   5.65751640080747     -0.30985315783689      1.18848960124185
  C   4.94081172826258      0.77101773945871      1.58772071477228
  S   3.26269827399130      1.07380975029615      1.17840697924945
  H   7.08104769737277     -3.76395451920071     -1.95326362844441
  H   8.35978263583920     -4.32963404820307     -0.88068783622382
  H   8.38507188293464     -3.79857293751063      1.26527917534832
  H   5.85027082244093     -2.82573787816653      2.23375055569896
  H   6.68027875702575     -0.40145416101324      1.53786901977550
  H   5.36426823791422      1.53585126600694      2.22277179644137
