22
Coordinates from ORCA-job 18544opt
  Br  4.75854995488833      0.94509050564712      2.38604623596031
  C   5.07723761021921     -0.40733656652379      1.11760131646151
  C   6.01961976201441     -1.35856723879030      1.39040024383963
  O   6.15050152735644     -2.39588268253027      0.46759864439462
  C   5.79530762667148     -2.18228153885236     -0.79874824597268
  O   6.34673780793153     -3.07686543965165     -1.65681489518520
  C   7.63062001098154     -3.55445564607844     -1.50010677277510
  N   8.55886034330820     -3.23804413358779     -0.72963439313333
  C   8.59371962724207     -2.16043976587820      0.14970929262386
  C   8.57250534389143     -0.84208986350386     -0.39784373328028
  O   8.40176430216064     -0.59216972230960     -1.59869863829901
  N   8.77548696222692     -2.42980449948888      1.45776523216276
  C   8.00091373492692     -2.02738918474898      2.43187292156826
  N   6.79172919834749     -1.46306276327112      2.46958272365924
  C   4.93918847287390     -1.23614479105565     -1.17399155337472
  C   4.39147310038271     -0.32736456899444     -0.16209989307039
  N   3.45885823393187      0.52897597286722     -0.38710075901280
  H   7.75565930122359     -4.36415043418918     -2.21150027953486
  H   8.73505061008350     -0.04315343720291      0.34335587877492
  H   8.42307884828351     -2.18973932413148      3.42306513683155
  H   4.70739884919081     -1.10074060147689     -2.21941440046439
  H   3.15073877186300      0.44561572375155     -1.35404406217397
