24
Coordinates from ORCA-job 18546optt
  Br  1.99751366570888     -6.16909385717279     -1.61374241050741
  C   3.33522239660308     -5.51847761185348     -0.41742917533631
  C   3.79726983597579     -6.35386408793803      0.58132433552484
  O   4.56486037567909     -5.72350254531415      1.54977032027405
  C   5.40054001138592     -4.66961585888048      1.26078980873081
  O   6.20492310103955     -4.32670351049669      2.09364899725446
  C   5.20635320142264     -4.05622322039520     -0.03663277570148
  N   6.37736213460286     -3.40999982443756     -0.62366506344625
  C   6.95357234095179     -4.66833644391237     -1.02134098252242
  N   7.76453146699580     -5.36849317776804     -0.30885155247236
  C   7.47472173390053     -6.71778613910180     -0.14790954849582
  C   6.19069237008234     -7.13429074552395     -0.30046166339662
  C   5.33323734530593     -8.18582871628382      0.22426738071952
  C   4.04457171714291     -7.80391409205259      0.51289397782281
  C   5.78959866468077     -9.52796324712223      0.39982206491431
  C   6.20192445327990    -10.65000099138572      0.53698402292275
  C   4.03194639683076     -4.34508121620123     -0.73599979245234
  H   6.92894705554285     -3.04334547332168      0.15132986374545
  H   6.44279517805228     -5.07857505525918     -1.89543438535660
  H   8.25541259545151     -7.32484924891657      0.29545156272427
  H   5.55714178286803     -6.37660913553881     -0.72147352807637
  H   3.26766680012368     -8.53491113443850      0.69980713364232
  H   6.56787469072639    -11.63964568333538      0.66083892712362
  H   3.76532068564667     -3.77788898334961     -1.61898751763523
