22
Coordinates from ORCA-job 18548optt
  Br  2.37849309741233      0.99715793516045      2.42035179522503
  C   3.63924729596056      0.51751596469442      1.09332504559152
  C   3.20718231161043      0.18221291773016     -0.19007262674256
  O   4.17522239376335      0.07157696619516     -1.13470886043708
  C   5.46165620814003     -0.35082327466261     -0.85054735264530
  O   6.20996036892012     -0.51400295048723     -1.77680500838534
  C   5.70909839337789     -0.62340331409966      0.55771410280265
  N   6.23783801138523     -1.92737014315518      0.82337746335583
  C   5.29543386377016     -2.90267479831797      0.34330683415616
  N   4.15691594690397     -2.47048494345254     -0.13096746023572
  C   3.17515426072365     -3.10214717843116     -0.74553110924685
  C   2.04663710629592     -2.44689722953255     -1.27476001298637
  C   1.55873935631643     -1.13165103810059     -1.19880322158255
  N   1.96517060459148     -0.03080743794959     -0.57247048538631
  C   5.69194795086618     -4.26789445972894      0.37144209239210
  N   5.97621493801254     -5.38748885973902      0.37712359075585
  C   4.84701184779279     -0.08541877592062      1.47248938421067
  H   7.16484412622605     -2.09631711079021      0.45010869512585
  H   3.23134277169398     -4.18441792623221     -0.89653463265184
  H   1.36909669038908     -3.10841999277446     -1.80339929736735
  H   0.57678654909640     -1.01616220338626     -1.65467749021879
  H   4.99300590675135     -0.32908214701934      2.51903855427039
