23
Coordinates from ORCA-job 18554optt
  Br  1.95927586841347     -1.58939131454670     -0.38640613592895
  C   3.11353930659759     -0.17174824679953      0.07335223569468
  C   2.89184569233079      1.13373601892725     -0.39536640330904
  O   1.76471249222075      1.44824593629117     -1.13316277641542
  C   0.54651935591544      1.40460340589581     -0.44154881139777
  O   -0.21774998081864      2.58318272104438     -0.67560897341030
  C   0.14203462429710      3.76128834672107     -0.10483562903980
  N   -0.62667093607940      4.75391868017299     -0.05489005321707
  C   1.55371252966715      3.82161111049854      0.40924252803618
  N   1.80208931639012      3.59161410884327      1.61960843958083
  O   2.38302398958293      4.04300284786989     -0.62283146353327
  C   3.71961157094789      3.54835951152887     -0.52348319681435
  C   3.81626647582918      2.11363993871998     -0.07153279707942
  N   4.89729369936504      1.91057402288649      0.67254298750321
  O   5.12769254446025      0.58968220866570      1.08295267267217
  C   4.28472585158887     -0.48006546050976      0.81207934741489
  O   4.64304319222901     -1.55872796177357      1.23473929661144
  H   0.72321400309900      1.27148577657172      0.62769853495601
  H   -0.07688971809376      0.60809644925536     -0.83986792647817
  H   -1.52812429580375      4.50920607681577     -0.46637991280818
  H   2.80243877762036      3.56426402828927      1.82007858828962
  H   4.31282339098937      4.16009822796360      0.16097974648543
  H   4.11857224925121      3.67332356666838     -1.52936029781272
