20
Coordinates from ORCA-job 18553optt
  Br  0.65698015204045      0.60050705099193     -0.18619335413138
  C   2.28522182754794     -0.31528277063430      0.04614477570225
  C   2.32890924291483     -1.57733440087099      0.47257315200170
  O   3.59363749737490     -2.14057986531773      0.61628758518554
  C   4.47955225103970     -1.37196386780290      1.32773661339017
  O   5.19342817956527     -2.05776702405443      2.21544214535494
  C   4.67959980152330     -3.19470797240577      2.84778723858953
  N   5.55106203603411     -4.07680702017586      3.09683875788991
  C   3.22866387034434     -3.26656866251807      3.08074152104212
  N   2.55994523288334     -4.41777580497460      2.98767770623089
  C   2.52441437193290     -2.03917850983169      3.30226450207272
  O   2.91799509768427     -0.96724600229573      3.69981942944557
  O   1.12033752509598     -2.17132303136449      3.02325186723757
  C   0.77307668434311     -2.66745446582393      1.84010862195514
  N   1.26546334479743     -2.42930314891716      0.69475451016656
  N   4.69146716997025     -0.14530841706717      1.13468283947344
  S   3.78750233800155      0.57449865501839     -0.10877588583031
  H   5.11008835527649     -4.81755902683743      3.63763822072688
  H   3.19087492815122     -5.14917381946109      2.66594584354601
  H   -0.09921990652151     -3.31067189565687      1.89927390995066
