27
Coordinates from ORCA-job 18557optt
  Br  1.32591809541309      0.60189830233588     -0.96783644831321
  C   3.00695141467274      0.95565461741883     -0.14122396781412
  C   3.48671129469204      2.28096445658224     -0.12847266252556
  O   2.57885910109008      3.36298294743583     -0.03899357741690
  C   1.82118929083399      3.51209619090964      1.05923821476560
  O   1.49165155111116      2.65607065023414      1.82631483225431
  C   1.52026448063790      4.99755644288795      1.30123202061264
  N   2.73229970954117      5.71710309680089      0.95431084218021
  C   3.73951920810923      5.41878794065619      1.64399418977918
  O   4.99392442886863      5.55070287489605      1.18797983932200
  C   5.13910267383932      5.20649002906435     -0.20668346157684
  C   5.65325279520671      3.78641160041727     -0.39706434187271
  C   4.87574951197940      2.55940387834420      0.06517539355290
  C   5.63614136662591      1.50003595846900      0.45726697529577
  N   5.07147682181763      0.25622573467507      0.73321420485646
  C   3.81955976780896     -0.14887540239636      0.19800206379884
  N   3.50047790371525     -1.40561398628643      0.08809743807403
  H   1.22747229855964      5.08312290601148      2.35182430431676
  H   0.69590699189063      5.33611999809560      0.67414573868855
  H   3.70890223441898      4.95388684382336      2.63692893295923
  H   4.18731204969512      5.35802239318287     -0.70795016624980
  H   5.87129950619013      5.90551710963225     -0.61182254334283
  H   6.64723552551322      3.72708321252895      0.05491895115686
  H   5.79885969954744      3.70192510366554     -1.48238048785048
  H   6.71674417008869      1.55160641152913      0.50993511478058
  H   5.70560565673751     -0.50202451455485      0.91620337524095
  H   4.26561245139528     -1.98815479635917      0.42164522532759
