23
Coordinates from ORCA-job 18556optt
  Br  0.67853443196579     -1.76602369957938      0.74091290024945
  C   2.14060689004259     -0.62832263703037      0.33451374248102
  C   1.89604708033946      0.74570160855955      0.13707984652834
  O   0.57560612437321      0.95891784530840     -0.39571990343179
  C   -0.05282782597572      2.17062373444137     -0.55514831918939
  O   -1.18406417569979      2.25163119582900     -0.92555246574433
  C   1.05497224285114      3.07637908813834     -0.18377730096442
  N   1.52657491521572      4.43525951958172     -0.01421010191567
  C   2.71303743219595      4.20264122533366      0.38693892454179
  O   3.30777061986011      2.99930192901245      0.63067804990354
  C   3.09063692928661      1.60449910267985      0.20712890904868
  C   4.30673162090230      1.01926238266353      0.14944154695355
  N   4.46293555134871     -0.35355340996468     -0.12293444150177
  C   5.64185649245243     -0.76528351510977     -0.66331362035674
  O   6.02271060187344     -1.90393116466668     -0.84781930365041
  C   3.41692061892103     -1.25902020228903      0.33323384264607
  N   3.64347603519248     -2.48150776672031      0.65267838575359
  H   1.76168993396699      2.66764379287122     -0.90365733108774
  H   1.24411111257534      2.62020554351229      0.78964359052469
  H   3.40278693391182      5.00137743495378      0.63773993789511
  H   5.19368646790802      1.56814831590102      0.43058767106816
  H   6.27197600491860      0.10066088815478     -0.93095318625095
  H   4.61522396157372     -2.71961121158077      0.49150862649920
