20
Coordinates from ORCA-job 18560optt
  Br  1.76156783430074     -0.15652688564566     -2.31036732681981
  C   3.23456785201373     -0.08735462619856     -1.13185189167778
  C   3.69795705123239      1.06643257910124     -0.61769664807270
  O   3.15296736316376      2.27159600537659     -0.59790828192612
  C   4.03481011898418      3.15587802784896      0.15636722660253
  O   3.70235021815712      4.30923452464571      0.34740586108003
  C   5.15849022703913      2.38553351839180      0.55524564063190
  N   6.17627956274904      2.66737819894126      1.32344802535286
  N   4.95579839954997      1.08575693394048     -0.01885299893883
  C   5.86231543777388      0.13520165065680     -0.44285610275554
  Br  7.68156356230723      0.59478493297821     -0.52239790670029
  C   5.37127232374152     -1.02124344471824     -0.92908249042762
  Br  6.43062326470562     -2.34801542069613     -1.77864076755421
  N   3.98430057653352     -1.26163914855129     -0.85823207054638
  C   3.60695435806009     -1.97289757296317      0.36642818341598
  C   2.25971048747002     -2.55019485922231      0.28597336728216
  N   1.21892644317235     -3.02827778298122      0.27408908597209
  H   6.07719516082098      3.64347094226377      1.59720711497285
  H   3.64822304105840     -1.31440040140013      1.24233899221664
  H   4.31412671716623     -2.79171717176812      0.51338298789225
