21
Coordinates from ORCA-job 18562optt
  Br  1.00969813906410      0.15795104968718      0.40101410542478
  C   2.90415915641342      0.14618889586988      0.18802725722762
  C   3.55836091234322      1.31622945800619     -0.00330224178579
  O   2.91907425549150      2.52189198976311     -0.11735860314879
  C   3.75289904414261      3.48125901965366     -0.69299155623792
  O   4.90050163395731      3.65263166556612      0.09530504337296
  C   5.64092173141076      2.49980551622321      0.27276997606743
  N   6.80515204419712      2.53014844260674      0.75106171917958
  N   4.95930070445053      1.35724307222081     -0.11128703852109
  C   5.69404852965948      0.13032454871520     -0.51126635870644
  O   6.78889488857597      0.23930661517356     -1.04553241690109
  C   4.96937929975666     -1.03575442932251     -0.24193484603078
  C   3.62737086956546     -1.05639882817723      0.17654222950537
  S   3.01165715881896     -2.61302122247032      0.66985438928335
  C   4.36898505950914     -3.56354876130345      0.03061513031948
  N   4.42878730305636     -4.83249434658274      0.03171963126866
  S   5.69011741847557     -2.59813042765285     -0.60380129463746
  H   3.21422261040933      4.42389777187627     -0.69311411680197
  H   4.03741727413081      3.17987728614554     -1.70680069338011
  H   7.09365535808890      3.49937597747591      0.85733219118069
  H   3.58139660848273     -5.24278329347431      0.41814749332152
