24
Coordinates from ORCA-job 18561optt
  Br  1.05535261475538     -0.27013099832755     -0.23316872717114
  C   2.93543182147877     -0.15531647685789     -0.05108959651271
  C   3.66997916051958     -1.33086616871693     -0.20363253500723
  O   3.23166409608576     -2.50027528412630      0.43683324930970
  C   3.61520894089081     -3.56751550963447     -0.33371447073916
  O   5.03001062978255     -3.56130613941478     -0.55680101334527
  C   5.78839616658896     -2.46486050950708     -0.30213309403744
  N   7.05532876645771     -2.58428201283018     -0.24557258621964
  N   5.10891610585346     -1.27253677816354     -0.14634412342195
  C   5.77925753248962     -0.05404297195590      0.09662488475193
  N   7.01816524913562      0.13667229828437      0.28832699621724
  N   4.94403342576283      1.04846242857084      0.08682153051442
  C   3.54374748811020      1.10656357624030     -0.01677246005683
  N   2.90706290257221      2.24729248594148     -0.07966606941483
  C   3.70921136035259      3.43138322980133     -0.02160926843484
  C   2.87743373315558      4.64081387288825     -0.14748794752033
  N   2.27841008244394      5.61389142368585     -0.23935509597859
  H   3.13161530161161     -3.54271769812537     -1.31430440393643
  H   3.39119412200782     -4.48621658075873      0.20790921231643
  H   7.29216235166833     -3.56131086074165     -0.38212399539995
  H   7.52633100582710     -0.73989894251261      0.23579912942310
  H   5.46096910083350      1.88991660222429      0.27631119248196
  H   4.46313016943030      3.50362148203679     -0.82352875288536
  H   4.25998787218567      3.55365953199949      0.92767794506693
