20
Coordinates from ORCA-job 18564optt
  Br  1.08824549388243     -0.24005815334986      0.09244611976668
  C   2.97323150375620     -0.09919441990269      0.09011896619725
  C   3.73283250565192     -1.20529003870542      0.08777902997251
  O   3.07682369682790     -2.40961151534200      0.08657813195093
  C   3.73629369314953     -3.59011753673155      0.08476350101833
  O   3.09174605205408     -4.59754602713934      0.08379487012061
  C   5.25701513442108     -3.54093404371574      0.08404232140029
  N   5.88834023178195     -4.65635376772247      0.08231520175496
  N   5.88493670405074     -2.34094291707933      0.08504561442217
  C   5.19547111470090     -1.21211195773705      0.08672685523331
  C   5.87233572103668      0.03174455825590      0.08773789447519
  C   7.29851424323029     -0.01190422265093      0.08713957014516
  C   8.49946552875420     -0.02299322665442      0.08664309662227
  C   5.25655518289489      1.29994917596989      0.08922515229485
  S   3.52084268274303      1.54068163080815      0.09137487224421
  C   5.94796573772328      2.54571765924597      0.08937831050847
  O   5.37304194948500      3.64098571009699      0.09076248011236
  H   5.20251150907657     -5.40953775217583      0.08177157911935
  H   9.56117380296702     -0.05714772622260      0.08621998874396
  H   7.04465751181226      2.48066457075233      0.08813644389716
