24
Coordinates from ORCA-job 18576optt
  Br  1.52965388483718      0.19899169116565     -2.19256148375786
  C   3.02127252643352      0.11828685047778     -1.02752837170230
  C   3.64326384432437     -1.12236171591668     -0.80917228728709
  O   3.13174459735439     -2.17781189221877     -1.45000711084870
  C   2.98513982750989     -3.46388385149158     -0.81042469245026
  O   1.84257319834729     -3.90025868645599     -0.70708793821748
  C   4.19600907566567     -4.11886423247136     -0.47713909108281
  N   4.32505911837878     -5.30630638533747      0.04646919075753
  O   5.37041743920105     -3.39959887581491     -0.70728406946732
  C   5.61824227577813     -2.39347230193492      0.23396635962280
  C   5.49996694276760     -2.96962338310996      1.66912731601256
  C   6.25194652358085     -2.19107735957858      2.64459232708527
  N   6.87007218500221     -1.57580760740138      3.39058196233386
  C   4.77680153564373     -1.14622239628464      0.02247007351049
  C   5.21160514710289      0.03698469591920      0.61681244408090
  C   4.55978451212584      1.24069743046186      0.41530531348684
  C   3.45940487047947      1.28291658099154     -0.42797874330545
  H   3.38912369330578     -5.70565166013310      0.10554115289412
  H   6.66260399410137     -2.10718020297452      0.07998991924558
  H   5.88412744287210     -3.99126493067755      1.64748743005824
  H   4.45365151929696     -3.02602727764464      1.97142470137809
  H   6.09762822366449      0.01049756686748      1.24022206833277
  H   4.91574086936239      2.14393265275712      0.89285392053659
  H   2.93816675286383      2.21010529080554     -0.62266039121640
