23
Coordinates from ORCA-job 18572optt
  Br  0.65095732613171     -0.98270837715822      0.69583364219244
  C   2.98673879530713     -0.11972828459080     -0.08760705482063
  C   3.57379987127593      1.05085455473013     -0.55087573645192
  O   2.85649540400501      2.23011578921197     -0.42593760849425
  C   3.14750724935952      3.21822606903607     -1.34000280202354
  O   4.29966946025821      3.96113110057558     -0.96542149113383
  C   5.49777921240544      3.33209345948144     -1.01611278332970
  N   6.56516068638104      3.85912242520268     -0.61786571630851
  O   5.50685367173060      2.13348228762726     -1.63054795750864
  C   4.85797750619158      1.01197588655524     -1.09733408424390
  N   5.57513328662470     -0.09447111796535     -1.24475966975097
  C   4.99879705749201     -1.19084303618722     -0.81618199933992
  C   3.72939557805513     -1.25348625921168     -0.23245538625949
  N   3.49437249031798     -2.58826794819170      0.06767945762814
  C   4.55647700311431     -3.37342065495767     -0.32782062974532
  N   4.75090810984716     -4.63764458605456     -0.27266289893710
  N   5.48707091727904     -2.48386094919524     -0.85103983295442
  H   2.33434136041164      3.93726291372100     -1.31287376908937
  H   3.28382433052969      2.80602439304181     -2.34312442585929
  H   6.36119952187260      4.78969147933064     -0.26175411530756
  H   2.60161941208350     -2.90748747638082      0.41539228787751
  H   3.95119855866975     -5.10033130173384      0.14591380830503
  H   6.36672319065612     -2.78773036688673     -1.22744123444473
