22
Coordinates from ORCA-job 18578optt
  Br  2.12496827719091     -1.86191696671221     -0.31796600305657
  C   3.11471929812768     -0.24231087151408     -0.33935981728401
  C   2.59203040226616      0.92952480852125     -0.74240120440184
  O   1.28825682430292      1.05777013198869     -1.16909780611927
  C   0.39264281439031      1.38486037550118     -0.14620788432362
  O   0.74196491722761      2.56829105817086      0.54310777576007
  C   0.29726840544758      3.79375329444602      0.13225580123950
  N   -0.85531600077004      4.09549407745885     -0.27431906841146
  O   1.21516100184954      4.74210320162965      0.32061602946879
  C   2.61175924088263      4.38737258588856      0.26923159120424
  C   2.80925101752329      3.36810365798164     -0.85335525796935
  O   2.27598893138633      3.58241698435450     -1.93335902601513
  C   3.38118262213530      2.09307463107516     -0.47107237644042
  N   4.45245784323105      2.04215759059645      0.35222769168839
  C   4.97566740199641      0.87384542179325      0.70243218808964
  O   5.93273555862209      0.62881391088768      1.38955669852626
  O   4.34692458514575     -0.34091274471886      0.15094261549833
  H   0.39097869407163      0.60631475428210      0.61861210946931
  H   -0.58140189537591      1.47778996135495     -0.62533733565926
  H   -1.47197874033258      3.29067851641226     -0.25374629872979
  H   3.12120633110911      5.32643777238392      0.06058724394102
  H   2.93853246957221      3.98633784821815      1.22665233352517
