21
Coordinates from ORCA-job 18571optt
  Br  1.26518719852607      2.07769577942640      0.78137546511647
  C   2.79754695047211      0.96129994811004      0.47038005677136
  C   2.60095456451955     -0.38357624705279      0.31283631589806
  O   1.34662244329685     -0.94408140514410      0.46384287682229
  C   1.10405475152462     -2.01505667195860     -0.37677971800197
  O   1.60162501160430     -3.26166095861644      0.09694021530240
  C   2.92978632229517     -3.53783883909723      0.22111350044824
  N   3.36024161774838     -4.72199709541246      0.13089799055821
  O   3.75080957594494     -2.55387590225205      0.57542954553179
  C   3.66575185374780     -1.26243518277928     -0.07219759228917
  C   4.89511927278239     -0.56272561335295     -0.14332253219531
  N   6.18401065031477     -0.94203679060936     -0.53410180447284
  C   7.01306249657326      0.14170611893039     -0.50465711488858
  O   8.19809035625785      0.19833052833014     -0.72190486258065
  O   6.24838603643274      1.22321773877963     -0.16495157592636
  C   4.95329871208376      0.78537279094048      0.06646188256883
  N   3.97185063032418      1.61633079836545      0.38068400076182
  H   1.50731654634355     -1.82526616297259     -1.37363316145822
  H   0.02735808101806     -2.16071320152918     -0.39973943129175
  H   2.57776522913642     -5.33991779005844     -0.06369146496302
  H   6.52516169905316     -1.88077184204704     -0.63898259171158
