21
Coordinates from ORCA-job 18580optt
  Br  1.72167279396485     -0.97389443485250     -1.49042121790732
  C   2.82964723929997      0.23874110697478     -0.59246047794673
  C   2.43484420988848      1.13694283087896      0.33076304811797
  O   1.10317235136596      1.35643035415031      0.61450536048285
  C   0.32999576167773      2.07842431622478     -0.23291518592199
  O   -0.85075852632072      2.10975193620509     -0.09315271721461
  C   1.07143507280929      2.85035101445617     -1.30886658994785
  N   0.84104997373082      2.57261789716009     -2.51870872044087
  S   2.14389487255011      4.12556081872165     -0.70607508653837
  C   1.78273278202587      4.29690479864892      1.01881123832679
  N   2.53503207555292      3.85150920789625      2.00646126658531
  C   3.39801398203208      2.83806999339469      1.96178810513213
  C   3.43437779408783      1.73104752909045      1.13343571483168
  O   4.59275804382451      0.91950891154611      1.26710591162169
  C   5.01143144586068      0.16937486631667      0.24514201314075
  N   6.11839699525623     -0.42897071001935      0.20460075196576
  O   4.17651309416248      0.07234512001411     -0.82461807437163
  H   1.37459789891069      3.18369566689546     -3.13926982026796
  H   1.08847120500234      5.09796945079588      1.23563057945949
  H   4.15453185139875      2.83642067625811      2.74389682728052
  H   6.64518908291908     -0.19680135075665      1.04134707361236
