22
Coordinates from ORCA-job 18584optt
  Br  3.95356759288246     -1.43539997434823     -0.71410248406662
  C   2.71070969791145     -0.09481473557072     -1.37014218062520
  C   3.26146396425904      0.93693838734970     -2.19751163797184
  O   4.49942495412223      1.46887972435251     -1.77191291019296
  C   4.47135520591801      1.82232624072388     -0.46023483010816
  O   5.41539140861475      2.32130523766235      0.06153228573897
  C   3.10936375829287      1.60125284264375      0.33855260543681
  O   3.05136170158687      2.07580306413020      1.43657985951632
  C   2.08152001863976      0.77978759993818     -0.35174766373726
  C   0.78867665043815      1.16019581831602     -0.52658206522630
  N   0.38242396093159      2.44781856241490     -0.22941250198392
  C   -0.44835345219611      3.04985729055175     -0.98042397782412
  C   -1.09476752196990      2.63606129544343     -2.26667718027092
  N   -2.35392208511943      2.64291926967127     -2.43558095044701
  S   -0.11113385816177      2.42834597998440     -3.76706034848777
  C   1.17349634646652      1.35016887430026     -3.30941010305951
  C   2.44678008536990      1.74723502358914     -2.98304514523664
  H   0.11704788154037      0.50895046513685     -1.07777015647745
  H   -0.74000373047160      4.05931281464281     -0.68516359556161
  H   -2.82228724575214      2.87506650555099     -1.55681331386625
  H   0.91161921736008      0.30482649542169     -3.22444289768136
  H   2.77226544933689      2.76416321809483     -3.17963080786718
