24
Coordinates from ORCA-job 18582optt
  Br  2.12434498812096     -3.19980861825957     -1.46050591038069
  C   3.35019811051416     -1.91085015541363     -0.81030145272917
  C   3.69612259428275     -1.77691147263082      0.54258051214137
  O   4.34510651501915     -0.51446568536027      0.77630969220927
  C   5.29749986676550     -0.15738968446820     -0.09674574131356
  O   5.90423210584856      0.87391203932938     -0.00638113228633
  C   5.54457119885366     -1.26691169456004     -1.07447073041006
  O   4.45758981761636     -1.77291046195540     -1.72115527854132
  C   6.70242787370505     -1.92060322109202     -1.01373776012143
  N   6.81304717187820     -3.31813752597805     -1.35049949458486
  C   6.11000333547161     -3.98053803118492     -0.29308781147275
  C   4.95880538620643     -4.61686942941846     -0.45718273769112
  N   4.12659425687970     -5.01003506892143      0.61465996784110
  C   3.35865861956879     -4.12914349693611      1.39254961492713
  N   2.30578141664337     -4.47844668502386      2.01093700250324
  C   3.87624096547034     -2.71614182985308      1.58509560700124
  N   4.48411403349567     -2.52646295556273      2.71640707204216
  H   7.54218720687722     -1.46528253365454     -0.50518032113702
  H   6.32479568235918     -3.49339236544179     -2.22326102506505
  H   6.50083059907465     -3.79507841319254      0.70102490809381
  H   4.55451926004696     -4.75224060092222     -1.45719243886419
  H   3.62980744604573     -5.87430891286629      0.45135929663378
  H   2.07830222116538     -5.45737833753130      1.82704183934113
  H   4.78821932809054     -1.55460485910204      2.76873632186332
