20
Coordinates from ORCA-job 18589optt
  Br  1.06269391673757     -0.49824604320000      0.37944722039236
  C   2.90914346057727     -0.15901857877678      0.13629526215162
  C   3.80767222694477     -1.21046733918027      0.10647927197157
  O   3.52308138742662     -2.51438510005186      0.21695023104739
  C   4.74693410943062     -3.25341321842522      0.09477131250156
  O   4.71240549382424     -4.45181361495688      0.15542122877124
  C   5.83768500181872     -2.27894459474761     -0.10028485707669
  O   7.04913621599274     -2.53837982405994     -0.26325541795393
  C   5.18216903899655     -0.99465529231088     -0.07781867746988
  C   5.63914523812239      0.30549035439185     -0.22808330979180
  O   6.98834613809475      0.49792000121232     -0.48185972688154
  C   7.85723899751343      0.05493062493760      0.46144960535288
  O   7.60437317473856     -0.09164842714931      1.61272967345279
  C   4.75072470237277      1.37643785134603     -0.20517268310295
  C   5.23109627727652      2.75397625005806     -0.36582869814190
  O   4.52018348957230      3.73335089480911     -0.37451686380578
  C   3.37871812632430      1.13456251014048     -0.02227768599534
  H   8.83878743428570     -0.08727376666261      0.00028111070950
  H   6.32231091052339      2.85983187111326     -0.48474357998109
  H   2.70515465942669      1.97974544151267     -0.00698341615002
