21
Coordinates from ORCA-job 18592optt
  Br  1.13873937213649      0.14378045141486     -0.49005443176153
  C   3.05856802510174      0.10300075916611     -0.29614991788292
  C   3.67894089632862     -1.15525290478321     -0.21190293072913
  O   3.03444620952717     -2.33666712112557     -0.59537332041086
  C   3.64268671933133     -3.48767793896203     -0.32129062654597
  O   3.14855974235088     -4.54923637878040     -0.59725412729987
  C   4.98025063372307     -3.33605592469018      0.37472695373811
  O   5.75679748091601     -2.28299681848267     -0.15618683790800
  C   5.08768937007120     -1.08502518240290     -0.14963099677034
  N   5.77280733248051     -0.00018490450215     -0.08634707672397
  C   5.05333994413223      1.17989100926206     -0.11900385257409
  N   3.68152578989934      1.21761083522940     -0.22833882901351
  C   5.75591320486881      2.41882368907654     -0.03817926318322
  N   5.15898431175394      3.62320543390549     -0.05471356865599
  N   6.21319150819841      4.46936823564886      0.05600390919857
  C   7.36212571713571      3.77859146594264      0.12817545668758
  N   7.13566497313160      2.49774856662860      0.07473616152340
  H   5.54090809446275     -4.25764810926240      0.25409067942746
  H   4.78246661399799     -3.16173873990069      1.44065376170295
  H   6.06415984787236      5.46132842853736      0.06562915248950
  H   8.32723421257978      4.25413514808028      0.22040970469182
