20
Coordinates from ORCA-job 18595optt
  Br  1.17853240755278      0.07086344311413     -0.09421055900558
  C   3.05702138647460     -0.01229679862912      0.00680188213327
  C   3.73816882756163     -1.22689121590522      0.04493469323083
  O   3.07443389448143     -2.39967376895596      0.03051888595917
  C   3.69348693471589     -3.63412250226138      0.07099918899522
  O   2.98648930293381     -4.59831434312651      0.05147478362094
  C   5.20719302373130     -3.67932919607838      0.14315258839516
  O   5.75693388787027     -4.78137006387413      0.18040984412053
  C   5.84137846246960     -2.41234208092505      0.16688161888230
  Br  7.72340982612605     -2.36005614657555      0.28649541567560
  C   5.12244719569031     -1.22615470308619      0.11166570540880
  O   5.78685349648625     -0.01578892966718      0.13334723857604
  C   5.01743236078870      1.12164814479555      0.10443130902071
  C   5.86102956021740      2.34447293216828      0.15053090489720
  C   6.58396145266000      2.65358519405089     -1.14110978738280
  O   6.45919669317270      2.05138751006332     -2.16602228419864
  N   3.74508130626720      1.15448703397594      0.04672282489228
  H   6.62347315615837      2.26144173200574      0.93355778358995
  H   5.23407957195833      3.20569410092360      0.39194263721954
  H   7.26439725268330      3.52875965798721     -1.08252467403050
