25
Coordinates from ORCA-job 18596optt
  Br  1.10772414926259     -0.57180334100815     -0.17035476373411
  C   2.96188211473009     -0.15487197497955     -0.18570717469769
  C   3.87136721671721     -1.16551319145490      0.16622338520550
  O   3.37146558331237     -2.37972347083270      0.63615428823978
  C   3.28511759563616     -3.33614487010436     -0.34958869472949
  O   4.51078053936144     -4.01589223842038     -0.65968742190154
  C   5.76207230596644     -3.54112623241120     -0.49447088901083
  O   6.65966614907111     -4.12378253782357     -1.04057109165025
  C   6.00745366298507     -2.36334159211765      0.42971689651920
  C   5.25830501484388     -1.10542819706055      0.06531700510928
  C   5.92343796208495      0.04198746048188     -0.32206540547093
  N   7.31431709601930      0.10535348356923     -0.55058493536118
  C   8.21105375374110      0.58238851716718      0.36492696906833
  N   9.46552237049864      0.75740202052695      0.23171858610278
  S   5.06793292637040      1.54538309054562     -0.66435062845845
  C   3.30865614413373      1.13035932727715     -0.66107193723535
  N   2.48090454911163      2.03067710718664     -1.06721394914334
  H   2.91887108075498     -2.89904914687115     -1.28178970772499
  H   2.61794340215563     -4.12027995450116      0.00383586897887
  H   7.07967088104874     -2.19323428137899      0.41357716467211
  H   5.71476754980304     -2.67945663812684      1.43503587171190
  H   7.66389190275262     -0.04954721159876     -1.48947346117005
  H   7.73918236923262      0.81118404020056      1.32047894752014
  H   9.77187705279391      0.50015571794709     -0.70781594613454
  H   2.97113662761217      2.86930411378764     -1.36723897670512
