23
Coordinates from ORCA-job 18612optt
  Br  0.89883341181611     -0.41972845734133      0.41727548427050
  C   2.77119456328124     -0.28235185889257      0.13601975345591
  C   3.54543300591611     -1.41327519395620      0.12662207011449
  O   2.96105592073566     -2.63431227702737      0.35713566691979
  C   3.27500438846345     -3.61399664530098     -0.59177652238046
  O   2.13862651209559     -4.45006665202374     -0.69802984629879
  C   1.20479785237348     -4.09512913548876     -1.59004605802943
  O   1.27826277571856     -3.20635014978416     -2.37940417735314
  C   4.45577664766160     -4.45142401779967     -0.14361403430776
  N   4.45727794867921     -5.72342312374736     -0.01744921573111
  N   5.56992624904155     -3.71833785395436      0.10821145131621
  C   5.92339139435620     -2.34199983307885     -0.08979265581847
  O   7.14730669048511     -2.14372042789847     -0.19706073948979
  C   4.94845308418085     -1.30430482437423     -0.10835977392121
  C   5.40874939392614      0.03894221437681     -0.32369362123788
  N   4.65859532400335      1.11132630474899     -0.29513432554153
  C   3.33696776252360      0.98231699557552     -0.05783499213423
  H   3.48200713492130     -3.14733867105111     -1.55807487028434
  H   0.34864234865411     -4.77436290221752     -1.49585716707596
  H   3.53740440259824     -6.09076288093426     -0.23575969535047
  H   6.39659759965476     -4.27242813463586      0.28531116308275
  H   6.46804069596145      0.16997846073139     -0.50793770916125
  H   2.72765489295228      1.87474906407413     -0.03075018504384
