21
Coordinates from ORCA-job 18618optt
  Br  1.57592238466997      1.26434942270279      0.51145570704530
  C   2.67493934534866      0.03345414440492     -0.39316078820467
  C   2.23841649353069     -0.87956637358794     -1.26512986093963
  O   3.23258438839014     -1.70492871274098     -1.78695934161978
  C   4.31021153489102     -0.95430388768922     -2.21052659195015
  O   4.67546491984674     -1.22386390703428     -3.47976671660487
  C   4.61148096055774     -0.16770730131208     -4.40068391966138
  O   5.23609029794817      0.82813427570318     -4.23376803397401
  C   3.72399190561394     -0.50799818989023     -5.59901411067462
  O   4.22381181643675     -0.54783044380745     -6.73318032783492
  C   2.37044483388386     -0.73282503868535     -5.24638432720055
  N   1.99793097537328     -0.57004840829759     -3.98468020331558
  C   0.74788030524396     -0.88147766266114     -3.58352834885149
  N   -0.36702458253689     -1.03826074580216     -4.19469040308627
  S   0.59944217171877     -1.15579473559774     -1.79053018541004
  C   4.80077260423560     -0.04258924631195     -1.38311162563844
  N   4.05661289805035      0.15817355868825     -0.18532016639054
  H   1.70077378662316     -1.07116051998757     -6.03942720655469
  H   -0.24568073155915     -0.85863098558469     -5.19059918754403
  H   5.62073009314543      0.61124922389611     -1.62871929131783
  H   4.32620359858778      0.95562553359513      0.36472492972822
