22
Coordinates from ORCA-job 18616optt
  Br  1.14219502223225      0.26249107798147      0.02824530719595
  C   3.00916372513816     -0.04123658469389      0.18773679771115
  C   3.64096930612925     -1.09249655160575     -0.39162224269457
  O   2.87492478933312     -2.13308682846853     -0.93687268562919
  C   2.22093023180854     -3.02039106096257     -0.15292293482184
  O   1.16080220751972     -3.46196226514731     -0.47386671888055
  C   2.94540043267763     -3.52925066471986      1.09359986377529
  O   4.32644722711979     -3.24610711997473      1.06632896455693
  C   4.93834698743227     -3.56132328376666     -0.11542571139872
  O   4.73055399806303     -4.59493219086284     -0.68126793473830
  C   5.79225491496972     -2.42102217541227     -0.59724441322943
  C   5.04690263211921     -1.11415487333772     -0.47417646049475
  C   5.68875617855095      0.09129921682082     -0.13320227458903
  Br  7.53480954555126      0.30864564289571     -0.57501967905950
  C   5.01320791233911      1.24523295793767      0.35068158778452
  N   5.39975030819408      2.44222829242659      0.57664124182277
  O   3.67697115469478      1.01018119108922      0.72118702890402
  H   2.74391408620021     -4.59946655207339      1.14672152688571
  H   2.53773203454021     -3.03339419964199      1.97318762988281
  H   6.11970309724256     -2.66073900358929     -1.60986496566063
  H   6.68447205256073     -2.37533016078759      0.03464672792336
  H   6.37879215558335      2.53081513589293      0.32450934475400
