21
Coordinates from ORCA-job 18624optt
  Br  1.10578198025126      0.21138531068938     -0.52351808241927
  C   2.97851070863901      0.20351666115366     -0.43853519281212
  C   3.68698879914931      1.26769106545249     -0.07898459943558
  O   3.22282303139490      2.53315644742827      0.13573480926783
  C   4.29716164666477      3.38640893384026      0.05797712633457
  O   4.19015077327274      4.56087587515949      0.17540556629591
  C   5.54598692036206      2.53864477445200     -0.21698653601984
  O   6.62205391487486      2.97373970197824     -0.52149198896972
  N   5.08236262980691      1.25803329386101     -0.08491513688784
  C   5.74073208303720     -0.00106684254650     -0.12037945975117
  C   7.05669473095623     -0.09715598477731      0.40264521148474
  O   7.68779305156753      0.80688251438285      0.95508196932580
  C   4.89594203439304     -1.12832076664835     -0.27284976882183
  N   5.43082017243360     -2.34626015217251     -0.67390155072664
  C   5.18156019778702     -3.54858194241005     -0.05465713900243
  N   4.44314632883952     -3.78727037461838      0.94672725424480
  O   3.56597528785626     -0.95562380306367     -0.77924794613387
  H   7.48894391438464     -1.11074813319586      0.31952927232133
  H   6.10113236655406     -2.34996385962291     -1.43337247831254
  H   5.71007346652260     -4.37460541578081     -0.53208692022686
  H   4.02136596125233     -2.91773730356128      1.27982559024472
