20
Coordinates from ORCA-job 18635optt
  Br  1.21797079302176      1.58059628771614      0.42166878084492
  C   2.94140562144247      0.81229730055059      0.45382717404862
  C   3.13774868664093     -0.50338820187287      0.31014434025597
  O   2.09923933422316     -1.36332778672910      0.00090830401881
  C   2.36045477070805     -2.61099235819559     -0.43206584100093
  O   1.73311274524463     -3.09534220860248     -1.32224238113171
  C   3.29435626989656     -3.55373625553159      0.37606797306804
  O   2.79958845056145     -4.46843212915888      0.96060291264500
  O   4.62203528976556     -3.39940354800415      0.32068055612927
  C   5.11020024927200     -2.12930907945620      0.11720159817058
  C   4.50686971912073     -0.92975352651446      0.25658113461857
  C   5.51333584707003      0.09085001702994      0.06412396737742
  N   5.29092974772113      1.40627476236567      0.13034432564552
  N   3.99909954477490      1.69317356843221      0.66061903908219
  C   6.75337362507778     -0.57915026552994     -0.22116445047690
  N   7.97652948978313     -0.19059847925561     -0.43475948903290
  N   6.42902813376355     -1.96328722789991     -0.22085699388818
  H   3.75646325564250      2.64957557716578      0.45753210132959
  H   7.99199574376763      0.82482838345289     -0.38702452475427
  H   7.14226268250199     -2.64887482996243     -0.03718852694963
