21
Coordinates from ORCA-job 18637optt
  Br  1.84059180362255      0.55294320599266      2.78843453361586
  C   2.66861030596193      0.94529179879039      1.04164820885150
  C   3.71775396677930      1.85817596150502      0.89743927320651
  O   3.55789317446076      3.14923632981900      1.40020550483211
  C   2.24704980211653      3.61190470963672      1.23006166188627
  O   1.89244725229447      3.66956122485373     -0.15374815989396
  C   1.33866138868788      2.63401650675209     -0.80529270064529
  O   1.52929177471574      2.44425072064412     -1.96309152093787
  O   0.44633195627568      1.92729514298463     -0.05926293367028
  C   0.27750133558637      0.56682000323174     -0.37053995110372
  N   1.17509187715552     -0.30949412588994     -0.40299695047017
  C   2.49113161532807      0.05761978683686     -0.05213251298812
  N   3.47492208524317     -0.31321786610741     -0.83537192766925
  C   4.64171043977711      0.35126597934129     -0.69344779567216
  C   4.75078547727082      1.55222499331767      0.05203524308838
  C   5.73810445233068     -0.06472400654076     -1.51062409975442
  N   6.65129438664185     -0.36500993352697     -2.14701073715642
  H   2.24658043657965      4.64390772730958      1.56779788418405
  H   1.51897295111231      3.00784250958923      1.76575885616904
  H   -0.76564421502773      0.34030142785374     -0.55074548668533
  H   5.54791773308726      2.25678790360660     -0.14911638918675
