21
Coordinates from ORCA-job 18631optt
  Br  1.67844295223255     -1.47943337168677      1.83733010653372
  C   2.94922233647161     -0.57041163496237      0.79683190481837
  C   2.91437638701369      0.76015802534041      0.61404926237317
  O   1.96029760662784      1.54765986633427      1.19531815553067
  C   1.08179707893029      2.09138660819100      0.28000998502928
  O   0.67851285330714      1.49610869948822     -0.66701819672845
  C   0.89475062099238      3.54857255132757      0.63685390374889
  O   -0.16855662970221      3.92989167679449      1.09469925797768
  N   1.96613500363163      4.33103353684673      0.39408055542576
  C   3.16188954924339      4.00066572736997     -0.07515881540689
  C   4.03286591296158      2.88463890899369     -0.42840967270225
  O   5.09443379085486      3.23214330891812     -1.00485911664647
  C   3.91138709394191      1.39474825473303     -0.20723913866171
  C   4.85626401088266      0.60301835412335     -0.78463059963180
  C   4.91472088169775     -0.82948662876658     -0.60276335409892
  N   5.75472477448933     -1.67234485910184     -1.09278504212396
  N   3.92627905598571     -1.33559315469967      0.23446594613842
  H   3.74307399264122      4.88541585075749     -0.33258042732872
  H   5.61484372821337      1.06984190728549     -1.39578709310856
  H   6.42268783697309     -1.18182842878969     -1.67828968014457
  H   3.94285116261015     -2.33118519849691      0.39288205900635
