24
Coordinates from ORCA-job 18630optt
  Br  5.20613423625118      0.23870547196415      2.96543485127621
  C   5.52994624018728     -0.70629163351571      1.37234631772729
  C   6.79767415916170     -1.26918533814988      1.13148482198354
  O   6.72052783529225     -2.39620399135522      0.23221996129134
  C   6.06362449669423     -2.01677405152852     -0.86750415595773
  O   6.65361162037536     -2.54326951411622     -1.98548783513826
  C   8.03953358947367     -2.50599065984941     -1.93588687697251
  O   8.68837818661249     -3.42676419213166     -2.33994810245650
  N   8.53013439126267     -1.33275042469640     -1.44617588029463
  C   9.75567655257150     -1.31463771447948     -0.66356263959172
  C   9.53682023850452     -0.76649210625821      0.75915043021283
  C   8.96910631194793     -1.72411860668233      1.79708651316440
  N   9.65124116322263     -2.57561811069906      2.43404397490940
  O   7.65982040873068     -1.60696276398796      2.14283505794885
  N   5.08196692239860     -1.23913921070196     -0.93174004079870
  C   4.57347310657963     -0.72305699757562      0.32362632118724
  N   3.36717478891395     -0.26277532383002      0.38868995253632
  H   7.83606704340656     -0.66669216667432     -1.12688836491102
  H   10.49935714391356     -0.68536247600645     -1.15800639761461
  H   10.15130904908283     -2.33066246982908     -0.63377554884322
  H   10.51813579889870     -0.47170016093141      1.13814401113324
  H   8.91186544975199      0.12709584673017      0.71542348440411
  H   10.62330232465918     -2.52420018814573      2.14004811713472
  H   2.94111894210674     -0.37115321754960     -0.52855797233058
