18
Coordinates from ORCA-job 18646optt
  Br  1.24017830163501     -0.24496521301139     -0.35509004112239
  C   3.08596587776266     -0.21459650046669     -0.00315949701725
  C   3.82669616335458     -1.34274140358505      0.30776115051240
  O   3.66240609347335     -2.69162640976879     -0.01707958667323
  C   4.90854757507529     -3.28954163851391     -0.11909043937446
  O   5.08069513892176     -4.42083079054233     -0.46230276893548
  N   5.83486762317864     -2.34824990778395      0.31377271750201
  C   7.14818637766991     -1.97157146464077     -0.04886072373701
  N   8.12232193712169     -2.66823257902718     -0.41914323310473
  O   7.23492325999359     -0.60588389366065      0.09707730047790
  C   5.95298796381353     -0.08957250309071      0.34913295555708
  C   5.27547557497039      1.05593007446396      0.01675711100478
  C   3.83267053758753      1.01014065886741     -0.04097027745562
  N   3.42135281353470      2.25394999192740     -0.28843526200288
  N   4.39197898224761      3.08373518389415     -0.42616659445378
  O   5.65836227688577      2.29295238362112     -0.24096666504991
  C   5.14170944761699     -1.18399191475190      0.61866266439984
  H   7.85567405515694     -3.64890407393071     -0.43289881052726
