21
Coordinates from ORCA-job 18640optt
  Br  3.04537534601992      2.09280455597493      3.88626224369320
  C   2.99920800727627      2.71172053605582      2.07789576301318
  C   4.30614116466166      2.83755927823114      1.49264356788990
  O   5.34739364118381      2.84775361205276      2.11631863864875
  C   4.45677242614247      2.72437608439514     -0.04384081070233
  O   5.41078331817305      2.14175166529192     -0.47654297939333
  C   1.15056392144466      7.63760734784723     -5.62061643963643
  O   1.43607840108838      8.33243731021290     -6.55599606677734
  S   2.14968215956788      7.48133146705812     -4.18392063793779
  C   1.07859008660536      6.46549714609181     -3.12356426826792
  N   -0.19263803856882      6.56550817160468     -3.08674154085457
  N   1.85373843077993      5.61170919861517     -2.39755600380231
  C   1.32325128301293      5.12834445021559     -1.29890036192169
  C   1.95188567340013      4.14963641240526     -0.49535971550247
  S   3.35696141391811      3.39497376787948     -1.26035490713778
  N   1.31313614934529      3.78807476928327      0.60521645302547
  C   1.73441419745750      3.07297962945782      1.63132480788127
  H   -0.54352112548135      7.33930801920929     -3.64096990971967
  H   0.93562991578439      2.82542413506133      2.32477213621776
  H   0.24601519362782      7.00505081800535     -5.60261710476134
  H   0.35353843456055      5.47015162505083     -0.93845286395453
