28
Coordinates from ORCA-job 18649optt
  Br  1.11271408522396      1.32905195215276     -2.18915698717116
  C   2.79369721848419      1.88453101596817     -1.49291925312023
  C   3.14264757243417      1.60362000946058     -0.10744774844783
  O   4.50420353248089      1.57576711316167      0.09860616973053
  C   5.36498036442370      2.34277051252711     -0.73065947803974
  O   6.54473081536292      2.21163434094065     -0.50360197456067
  N   4.78687861996886      3.17754721059228     -1.61342741444370
  C   3.52885760301992      2.91638166501185     -2.02679002406921
  C   2.90920483475829      4.01132034554770     -2.85954521958477
  C   2.47717093388311      5.14539862242242     -1.89829438919167
  N   1.37984873836449      4.75529308944499     -1.01569472784837
  C   1.38393740082643      5.02322163952540      0.42355514440609
  C   2.73544856480223      4.99049426747810      1.13693035097995
  N   3.22144006248850      3.61645082121078      1.22421377447736
  C   2.41170354750279      2.58788013245468      0.76324631285332
  N   1.13264222632452      2.61332081179444      0.81168125859712
  C   0.56356781834696      3.91838974390275      1.11946408188424
  H   2.04622998076766      3.65672988426249     -3.42265439469602
  H   3.65003513953175      4.41222562449224     -3.55192646405538
  H   3.36921263032267      5.43612413143236     -1.33804362454563
  H   2.18524886328974      6.01166406585768     -2.50393277106464
  H   1.12442168244816      3.79093488132165     -1.17382910574025
  H   0.92940134777958      6.00022878892334      0.62323224107085
  H   2.59402083374258      5.41775689107980      2.13504165719515
  H   3.48552018383450      5.59695243726688      0.62855891739034
  H   4.19573987625171      3.49687266354911      1.00081511473360
  H   0.54729735721409      4.12385112599661      2.19758939676171
  H   -0.46880183387845      3.92958621222137      0.76398915649903
