21
Coordinates from ORCA-job 18642optt
  Br  1.10782652932172     -0.03639452081464     -0.07922622830402
  C   2.98187850970387     -0.12336824181892      0.16905826179823
  C   3.77505372600138      1.02679616811939      0.14713862022740
  O   3.70612634102504      2.13024979587203     -0.70627000882321
  C   4.99447376983909      2.57332507901081     -0.93947399517175
  O   5.26614974344395      3.41172911109663     -1.75343486330898
  N   5.83160448324438      1.90839291050361     -0.06787706264426
  C   7.15791001629909      1.33094926457361     -0.33231780060505
  C   7.07066339233132     -0.13695197876898      0.23475335062986
  N   6.90239902165706     -1.20609098727919     -0.73091844240585
  C   5.78538848365940     -2.00999548892735     -0.48955979666962
  O   5.53608610544743     -3.01947924908918     -1.09606135508814
  N   5.04510943122145     -1.40153777906025      0.53492835780794
  C   5.72530400848833     -0.20801053640699      0.93208450469222
  C   5.05490738024474      0.95560004272610      0.60136120508174
  C   3.56890605969351     -1.41004347075336      0.42167818897094
  O   2.98985716611365     -2.47287614317492      0.48568229290453
  H   7.92998822615575      1.89376356474712      0.19213549166033
  H   7.37103819429436      1.34740964378059     -1.40191193797442
  H   7.94285137954490     -0.32684358815302      0.86985046115265
  H   7.68547803226950     -1.66062359618308     -1.17061924393054
