23
Coordinates from ORCA-job 18647optt
  Br  2.84002459266055      2.26045070565967      1.87948002400625
  C   3.93416733020550      2.01608697171817      0.36136695697718
  C   3.35659759065058      1.70742166483535     -0.89845746667250
  O   4.23376693554220      1.26463180858289     -1.83260416719805
  C   5.62172875308747      1.21108794874603     -1.61299343078201
  O   6.24833526115581      0.55443449373276     -2.40169978479371
  N   6.12448862687006      1.94967047101793     -0.59359989771276
  C   5.28502922448511      2.33247279937508      0.35815661758519
  C   5.81086859389791      3.33029257592445      1.33772524464419
  C   5.38034964282299      4.58435071923987      1.20475911705843
  C   4.43473422534763      4.86958011079021      0.09761113140935
  C   3.14162743974525      5.13810103843387      0.23051065115949
  S   2.05578360852794      5.05629192302708     -1.16369140515037
  C   0.85366255906790      3.82207072812899     -0.57674948958162
  N   -0.28254371100345      4.20935772095507     -0.06255592285884
  C   1.08592466744386      2.43339648224679     -0.75622989347405
  N   2.13098501923933      1.78063734214125     -1.28006692788352
  H   6.54086881291125      3.03498310984938      2.08107179254511
  H   5.72014763920444      5.36939135224541      1.87132694529065
  H   4.80060169594456      4.62899398253586     -0.89782555245980
  H   2.68262649177765      5.30792020122212      1.19830129572063
  H   -0.31343264074047      5.22488159370883     -0.02218387931462
  H   0.20665764115583      1.83649425588288     -0.52365195851462
