28
Coordinates from ORCA-job 18658opt
  Br  1.12940316391063      0.01367426774631      1.15654780060898
  C   2.24414503631710      0.90579792598483     -0.09854735701318
  C   3.25270570527690      1.77167839872390      0.18144776426785
  O   4.04535183539805      2.12940508050852     -0.83877915799635
  C   3.86446677120712      1.52486150719804     -2.19822183811448
  O   4.89657985296500      1.52193109742294     -2.83034069051405
  N   2.63362427487825      1.20017542899341     -2.48449966272440
  C   1.71449686840580      1.16819578397308     -1.46818572545650
  N   0.80732731093912      2.31388635193105     -1.25500248646051
  C   1.37926523630452      3.42931061596695     -1.40543866769453
  N   0.98754996478418      4.61601907106794     -0.72390675369516
  C   1.76424808257149      4.71648433220807      0.56451688837739
  C   1.32405319643765      3.61271030906649      1.57447774678770
  C   2.44461264815678      2.80994609722211      2.24369778837354
  N   3.55030485229786      2.52155401154825      1.32933716218004
  C   4.20648445996467      3.80560520857322      1.04411935374710
  C   3.29598937808684      4.80388881382766      0.28932985723918
  H   2.32585338088143      3.51877338436796     -1.93530308172242
  H   0.01192297583712      4.50175188953739     -0.45875786726364
  H   1.45920882774145      5.67746573282161      0.97864283229176
  H   0.68234323172082      2.90829291963848      1.04426458429308
  H   0.71221399591387      4.07061748330895      2.35644162634810
  H   2.04305022783346      1.89205334260355      2.66152099478458
  H   2.88261733965206      3.37103313378349      3.07215837482132
  H   5.11132789465554      3.64010579489829      0.46803716475228
  H   4.49642826855472      4.21287418039843      2.01414421302714
  H   3.47120170560666      4.67423788246475     -0.77480698014025
  H   3.63322351370075      5.81466995421414      0.52810611689540
