23
Coordinates from ORCA-job 18653optt
  Br  1.92489382839566      0.54086948278422     -2.77363028898002
  C   1.82898113966703      1.94886639613539     -0.56381508047123
  C   3.03514459508063      1.92731827644830      0.18668967390878
  O   3.29726393780666      1.01129058124055      1.12404053471432
  C   2.20697846428061      0.18188234387098      1.49511147516224
  O   2.47127099755209     -0.68441269712133      2.27602638429639
  N   0.94281678822658      0.43056655316138      1.00393730917094
  C   0.74321866175028      1.31419231318983      0.04140999524618
  C   -0.65407490390719      1.41463234870463     -0.48960675537621
  N   -1.55718680676241      2.26394587540498     -0.24448291838544
  C   -1.46226327124781      3.32764947403826      0.65481233312951
  N   -1.61590275391652      3.26289489018455      1.90680162607925
  S   -1.35743419121213      4.94992462527373     -0.12091629851679
  C   0.06183166777588      4.60498178100663     -1.11781963532626
  C   1.17928602110431      4.23413840284893     -0.49884223559811
  C   2.21593168996481      3.34147891656875     -1.09174817035690
  C   3.48987714858296      3.12316315988369     -0.25335927693499
  H   -0.89907765202623      0.61336277139117     -1.18760620584590
  H   -1.72351013798146      2.28751105516706      2.19220054817349
  H   -0.07425715583067      4.49735422633422     -2.18720755039962
  H   1.23304514541438      4.34121230218172      0.58318584500920
  H   2.30847452776430      3.40783214654507     -2.17364746285421
  H   4.33169225951823      3.75834477475725     -0.02553384584462
