23
Coordinates from ORCA-job 18657optt
  Br  3.98988752059375      2.28310070606250     -2.49059764315616
  C   4.79433270339965      1.77118964506687     -0.86321271939434
  C   4.08930853896960      1.83325963058209      0.29759786707822
  O   4.64600071061954      1.43673850879666      1.43752729138251
  C   5.99205015176031      0.95675373931238      1.40178051274118
  O   6.29961678178945      0.17328491641849      2.24920050790839
  N   6.76390433205206      1.54995678964756      0.47040281590894
  C   6.19160246211612      2.01816497441756     -0.60898300398733
  N   6.84149781083200      2.94309724302312     -1.36492268054381
  C   7.70027289150153      3.87061503660703     -0.69759591147852
  C   7.33958778945284      5.14548987116558     -0.47140040432371
  N   6.21817353282032      5.84494887057615     -0.87309301289480
  C   4.97765543583106      5.48603601702030     -0.60901238474015
  C   4.52095426500854      4.43620309470369      0.20596965292321
  N   3.23324782245006      4.05822431934841      0.23335148550331
  C   2.89971715526539      2.75742977597492      0.44881050603048
  N   1.74045491005940      2.25358445424377      0.67072331990442
  H   6.25484920569729      3.37490897177539     -2.06803425964188
  H   8.65874589984677      3.49388249235079     -0.37551101317295
  H   8.11248196776230      5.76794778092228     -0.02261840939719
  H   4.20163198759956      6.06645215079605     -1.10699658151850
  H   5.28928052514323      3.90171852254449      0.76910545312248
  H   1.07474559942917      3.02601248864386      0.72850861174622
