23
Coordinates from ORCA-job 18655optt
  Br  1.07276299082275      0.00880365426180     -0.41713353196907
  C   1.31444095709960      1.88820562787388     -0.57091385829611
  C   2.63757204492490      2.47901774883228     -0.42691975080065
  O   3.55842737444813      1.89732053723595      0.38603298514584
  C   2.96207570731192      1.73713650936002      1.71747109682626
  O   3.61156314708944      1.10680858783172      2.51013784771010
  N   1.78513567479538      2.36086940177776      1.81372083523811
  C   1.36260493686841      2.82294526486699      0.60018122704044
  C   0.54458780491941      4.09718669862244      0.50034048070787
  O   1.08811296418057      5.22375728165980      1.19458764163883
  C   1.03551790830576      6.46689959090539      0.55296001795601
  C   2.42085208376326      6.94842935486244      0.00370812956296
  C   2.90875929048873      5.80052134730658     -0.79185135470023
  N   3.41932782824084      4.76212280146211     -0.24131075532954
  C   2.94780173098100      3.75336609719347     -1.06070145705609
  N   2.36479373210220      4.16990321652329     -2.15318460803261
  O   2.33624993683689      5.56379458251897     -1.98397630920474
  H   -0.43689829612055      3.87447409045179      0.93354420370169
  H   0.39847284991579      4.32839572952436     -0.55837524749898
  H   0.32952537102556      6.45033823955404     -0.28436416816497
  H   0.68809541774686      7.20913011036195      1.27637220023952
  H   3.10650256846760      7.12405393742462      0.82932885438153
  H   2.27771597578551      7.85851958958826     -0.57865447909617
