23
Coordinates from ORCA-job 18650optt
  Br  0.27704309264138      1.61601734077675     -2.13120580260545
  C   0.72367169936416      2.84295079630984     -0.57312507377805
  C   1.90915769449724      2.41124054013953      0.19333398901980
  O   1.89954940825700      1.39161335997253      1.02925437914848
  C   0.55148533974453      0.94102716630205      1.38651299069688
  O   0.53582929744770     -0.14056621976303      1.91380698241659
  N   -0.46244748199475      1.78724873552737      1.18921909998874
  C   -0.42229064482043      2.87631040987194      0.38121758241572
  C   -1.49724907002880      3.79077595570934      0.57886941633358
  C   -1.94016381464684      5.04080424481243      0.17340308066886
  N   -1.40670314692623      5.96053246337148     -0.76029526420000
  C   -0.20412066659261      5.62732409297084     -1.36551333639342
  C   0.82201507785198      5.24617706610003     -0.60185383063014
  C   1.59736072183571      4.05762355621103     -1.03491323332318
  C   2.68071121757150      3.45398572587542     -0.14832921650336
  C   -3.11838876406303      5.54242839822735      0.79822963786711
  N   -4.07868006463024      5.98767617258486      1.25801001216999
  H   -2.14297239611897      3.38966448463980      1.35263397780546
  H   -2.09885993181097      6.44872142766362     -1.30597863931866
  H   -0.20461686782887      5.46637149987285     -2.44199817364960
  H   0.75927825852034      5.42215017827141      0.46760541039194
  H   1.77674780374806      4.04628384843371     -2.11159352325494
  H   3.65564323798216      3.80263875611880      0.15770953473366
