28
Coordinates from ORCA-job 18656optt
  Br  0.24581858396016      1.00111192932524      1.13955192470232
  C   1.47353849218469      1.79701749050299     -0.06995832359671
  C   2.85188915761622      1.87897489039965      0.28272324151626
  O   3.71568108781396      1.76764066213331     -0.76896272794826
  C   3.26653598115266      2.15765965064947     -2.04859054549769
  O   4.03648109497205      1.95428499868323     -2.95588907613776
  N   2.06618547342076      2.78211432700094     -2.13320190945290
  C   1.16496285407382      2.56190171278731     -1.16613438498355
  N   -0.05934727979582      3.25272462481488     -1.27529958702860
  C   -0.19706783922068      4.45726083491913     -0.40955653327702
  C   -0.71688931015745      4.20884609678073      1.02383721509172
  C   0.37335804838508      4.31379585574314      2.12108337349298
  N   1.67528463083004      3.96061540803768      1.62459698891890
  C   2.17488601486557      4.81248792865773      0.56087686438220
  C   1.04817575123774      5.35220363037868     -0.33670958590550
  C   2.51420135664105      3.01324894988868      2.20544945284624
  N   3.31608466604076      2.22108537121760      1.46369158638056
  H   -0.11409486156673      3.56640070162763     -2.23879729458395
  H   -0.97036920122910      5.03052545380280     -0.92491989318132
  H   -1.20512577661708      3.23959408649313      1.05766150243591
  H   -1.48022195987633      4.96383565416301      1.23886025520244
  H   0.12585059399454      3.64742324144855      2.94800780240674
  H   0.38125038038170      5.34321648751849      2.51612733881066
  H   2.88925055002945      4.25447535881792     -0.04047889508756
  H   2.72496152800074      5.66624226321092      0.98944251228756
  H   1.44734171910843      5.52304755457897     -1.33858266096257
  H   0.70881389025242      6.31864175845911      0.05121225989079
  H   2.53956437350134      2.95062307795902      3.28795909927814
