24
Coordinates from ORCA-job 18661optt
  Br  1.82801163109306      0.19158510285630      2.85273291810607
  C   2.56331182293359      0.34948344177973      1.11845054953974
  C   3.30063757467190      1.49048733487992      0.64315463979442
  O   4.37085418156255      1.16230357041756     -0.13865936995990
  C   4.25904398541050      0.01789783494525     -0.95086496756451
  O   5.24516403496216     -0.29163494092883     -1.56612846442099
  N   3.03405534863859     -0.56958945727355     -1.01826975817247
  C   2.24879280554741     -0.45080729074257      0.03246296279512
  O   1.01700194771587     -1.03457382215517     -0.09062811706980
  C   -0.07853581043320     -0.14115239552179      0.12470773666560
  C   0.01607524738029      1.14999842744986     -0.69800886303897
  O   -0.69883954316488      2.17763963085849      0.01072229516686
  C   -0.31694862965768      3.46802405246918     -0.25694297286943
  N   -1.04620998173478      4.28654314924086     -0.90137952632825
  N   0.89455141649813      3.83979926115429      0.26637858883883
  C   1.68457409013648      3.03258243221528      1.09734918991380
  N   2.93120130026014      2.72593518975804      0.62821516172167
  H   -0.16513148883207      0.13863718113350      1.17411818051634
  H   -0.96155137221884     -0.71558877464944     -0.15171983953922
  H   -0.43769516685387      1.03320234539348     -1.68506411868100
  H   1.05742891148734      1.44237471333951     -0.83665855368759
  H   -1.86521362284198      3.79729408080686     -1.24755394867217
  H   1.31362096845280      4.64952167827135     -0.16449685208451
  H   1.11280034898646      2.40103725430187      1.75808312903037
