20
Coordinates from ORCA-job 18665optt
  Br  1.03971906224582      0.16513481840644     -0.03774554841345
  C   2.88747186127798     -0.07992076611813     -0.04837349741850
  C   3.53632667748326     -1.25691025640090     -0.05414054311603
  O   3.05535424127212     -2.50196503586447     -0.05663736873919
  C   4.24018874033143     -3.36914565703892     -0.06234871035832
  O   4.04932959418482     -4.55570932898764     -0.06532308109619
  N   5.35771582368559     -2.61700034168149     -0.06293821880878
  C   4.95776937686933     -1.33027979293001     -0.05796588756959
  C   5.69233882283028     -0.12463516756126     -0.05570628740499
  C   4.95288923954523      1.07901997783929     -0.05141739850556
  O   3.59816911351900      1.10274779313226     -0.04797446246465
  C   5.62168796556277      2.29713079648837     -0.05067546565868
  C   7.03782876314129      2.26446424132862     -0.05314966253475
  N   7.74700229836375      1.15402043968245     -0.05618195963245
  C   7.09552554787038     -0.01233561707404     -0.05757965142922
  C   4.92429894143101      3.53705368152669     -0.04819481665204
  C   4.35878697781305      4.59731242479290     -0.04588064984962
  H   7.57684764477854      3.20529368827827     -0.05242523451077
  H   7.68564516865519     -0.92019649820998     -0.06010093893291
  H   3.84810413913911      5.52892060039155     -0.04424061690432
