20
Coordinates from ORCA-job 18668opt
  Br  1.06296641634396     -0.28934711296285      0.45431650677696
  C   2.91173682612283     -0.03503708861642      0.32022432522552
  C   3.51179726214850      1.12290583020925      0.06108240083092
  O   3.00639172933994      2.34525576380326     -0.14707448508164
  C   4.16274604069957      3.20858324489405     -0.28228408664344
  O   3.96700735686059      4.37497134083238     -0.46778644062064
  N   5.30797198796866      2.48928125085457     -0.17108888439871
  C   4.95514412893177      1.21226926179155      0.02040322356437
  C   5.69994279094069      0.04859483955986      0.15803190903011
  C   7.14510216995575      0.08167357346963      0.11123277914987
  C   8.02943868729484      1.06786377516217     -0.22083174690531
  C   9.33142764619867      0.50826348692667     -0.04718421102028
  C   9.14313776153610     -0.76451462029279      0.37560590952272
  O   7.82470607157993     -1.03598153255986      0.48091572705219
  C   4.99478712509599     -1.17155459444952      0.34879401166521
  Br  5.43374986054185     -2.71292067914720     -0.89413489742018
  O   3.64115358660080     -1.15529959021900      0.55134808095459
  H   7.75480354400871      2.06025815248615     -0.53164581173850
  H   10.28057025506222      0.99000918218389     -0.21297121546210
  H   9.81241875276821     -1.56727448392582      0.63104690551834
