20
Coordinates from ORCA-job 18674optt
  Br  1.02951982795321     -0.09042442981930      0.19084109853150
  C   2.89668130916854      0.00815487775873      0.05755028202760
  C   3.62453798027315      1.13726698523012      0.03212150290872
  O   3.26698995722144      2.41519333183453      0.10198152171179
  C   4.54404503571320      3.17853480247833      0.03553523825285
  O   4.44971129663381      4.37751791209556      0.07406794527726
  N   5.57273603313815      2.33256267889778     -0.05795073974365
  C   5.04997917959388      1.07908710774443     -0.06937007906635
  C   5.60462886264545     -0.19934810648375     -0.03755483712226
  O   6.97575968712837     -0.26937028031579      0.03392833867994
  C   7.61800913248895     -1.43122397156641      0.04520742990268
  C   7.36363594199283     -2.76154029134426     -0.04330517513127
  N   8.58010143115674     -3.43535930296934      0.02880039194995
  C   9.46067797238767     -2.51449876935760      0.15469781620561
  O   8.95676080133042     -1.26172932033393      0.17324991461508
  N   4.93241618772229     -1.32133455248830     -0.01719161544897
  N   3.55464843036754     -1.21976132271487     -0.16999440926501
  H   6.41838611782125     -3.25256882161875     -0.14536828454150
  H   10.52932879153770     -2.60799035707185      0.24736735616846
  H   3.10444602372527     -2.01216816995532      0.26438630408757
