25
Coordinates from ORCA-job 18678optt
  Br  0.99238521227514      0.94728687217660      0.03305954485525
  C   3.08907134731859      0.35616181482534     -0.64083943657600
  C   4.16579323180398      1.16310627525962     -0.42302509235426
  O   4.37502605532786      2.49695000001670     -0.66771893500824
  C   5.70382601487603      2.74828392191069     -0.33384098121918
  O   6.17506875629442      3.84588178345360     -0.45959995503429
  N   6.31791375147691      1.59038292103973      0.11871416267303
  C   5.36966897395080      0.66877323554537      0.06191176687071
  N   5.51140006370021     -0.64646082650919      0.41670029886287
  C   6.73147375444666     -1.07083730290883      1.08785636171252
  C   7.81887760953460     -1.54577804241856      0.13726435135841
  N   8.37219640753310     -0.42099841281239     -0.59100266021851
  C   9.48455348877066     -0.55275270809722     -1.32784472407483
  O   10.11152976357585     -1.58658361870079     -1.46283978091438
  C   4.45681481863505     -1.53845910698785      0.20171209920517
  N   4.46257874171885     -2.79788528738785      0.43161651910254
  N   3.31799658274379     -0.96051680364370     -0.32332150812775
  H   6.47504491039151     -1.86144818110758      1.79177303973268
  H   7.09315861915687     -0.21539507137185      1.65918283089642
  H   7.41751149924048     -2.28911313951012     -0.55816984502065
  H   8.61737912424870     -2.03277142023181      0.70261184267152
  H   7.91591386578641      0.48614894091499     -0.49802582109210
  H   9.79214471933100      0.38814333677133     -1.81033727908715
  H   5.35993215761068     -3.13189918527998      0.75638179220366
  H   2.55774053025135     -1.61421999494620     -0.44221859141745
