20
Coordinates from ORCA-job 18677optt
  Br  1.21708193135351     -0.02533854833148      0.19058229958542
  C   3.09783286151500      0.02670170988832      0.11456821158085
  C   3.80664156217272      1.21932650765354      0.09240430315914
  O   3.35703143993222      2.48752508775466      0.08790357895666
  C   4.52683381997326      3.31946933861118      0.05563619487188
  O   4.38239100361213      4.51574160178678      0.04648806021515
  N   5.64117148020573      2.54498832145610      0.04102108942940
  C   5.19234902283430      1.28872442077471      0.06411681218737
  N   5.94869510308017      0.10807082989681      0.06282249833722
  C   5.22986006370425     -1.11846990616164      0.06150803505374
  C   3.87012918104275     -1.14723509135630      0.09150673416055
  C   7.29232759947641      0.04005100152168      0.07808414707956
  N   7.97681814688436     -1.06702482165245      0.08357773099218
  O   9.32319277076227     -0.60862067609426      0.11350163803233
  C   9.33269347448769      0.73659801464130      0.12550835424849
  N   10.31426502858645      1.51533048984669      0.15835587444240
  O   8.04471734910655      1.16431773218872      0.09696302267911
  H   5.84608679729511     -2.00025458559192      0.04151020468854
  H   3.38384954466140     -2.11256708088126      0.09569046002796
  H   11.17503181931361      0.97766565404881      0.17725075027207
