21
Coordinates from ORCA-job 18673optt
  Br  1.11951869632549     -0.03345582894592      0.23806097112561
  C   2.98955848905355     -0.04118994654053      0.12976327353217
  C   3.71214622927661      1.13141384786594      0.08756447333297
  O   3.20589998580824      2.40930128104388      0.10812926713922
  C   4.24361002174583      3.30044109241644      0.03112014983698
  O   4.09853937118173      4.49112404135187     -0.03410985335629
  N   5.40463119331356      2.57495077237810      0.04417758494169
  C   5.09469601392860      1.20267543317817      0.02913760321964
  C   5.83122502906423      0.03233081032967      0.03579765600754
  N   5.10465014753283     -1.15298800175636      0.01056087439270
  C   3.70777759971561     -1.28819086146151      0.06988496447448
  N   3.12578773889336     -2.43849663314411      0.06606435487056
  N   7.18292484207367     -0.08224913633826      0.05748980220175
  C   8.17073469964346      0.84549916071337      0.21332573803743
  N   9.33665213799133      0.21874963980594      0.16294649958222
  N   9.08342800745804     -1.06097455079515     -0.01338720617290
  N   7.79519634843411     -1.29291922109415     -0.08514238480419
  H   6.25929987548289      3.00107486196048     -0.26588727681582
  H   5.65605657289056     -1.99695529249123     -0.03390346958592
  H   3.81085662158105     -3.18873693210723      0.02606081294702
  H   8.01281037860519      1.88559546363060      0.42434616509314
