17
Coordinates from ORCA-job 18684optt
  Br  1.12175750932839      0.00195469295703     -0.15235740456059
  C   3.00197642323875      0.10849563438630     -0.10435521437858
  C   3.73755050540323     -1.06876328837883     -0.08236693713201
  O   3.24124667293099     -2.33009362241299     -0.06944149008447
  C   4.35940009195249     -3.19690608576385     -0.04068571660257
  O   4.18549549035106     -4.38827614829894     -0.02349796493722
  N   5.51324825731910     -2.46117482243746     -0.03786937489800
  C   5.12215589240131     -1.19228908887943     -0.06265426904644
  S   6.22202510263662      0.15645454156570     -0.07735573686423
  C   5.06491789528689      1.46015267397128     -0.06610913909298
  C   3.67373179808779      1.34602706520845     -0.08669254181093
  C   2.93916372915967      2.55491185392716     -0.06881824327490
  C   2.35784274569088      3.61619377015008     -0.03899198996426
  C   1.56675239260453      4.80365960341617     -0.00191751374662
  O   1.99406616411363      5.93578418454107      0.05125123709223
  H   5.51493801690097      2.44039299448073     -0.03929233575077
  H   0.47873131259365      4.61747604156751     -0.02384536494768
