21
Coordinates from ORCA-job 18683opt
  Br  0.93272468212045      0.65274841697001      0.58806819062254
  C   2.69691254895163      0.19983288708924      0.11532133699624
  C   3.71352063344500      1.14310829013694     -0.04324672681663
  O   3.67553723668263      2.49414961462277     -0.10023118836108
  C   5.02978432844002      2.91165265524823     -0.30949623880884
  O   5.26300106486067      4.09447211694475     -0.39063825362418
  N   5.84471587927178      1.82850185246277     -0.37844143662802
  C   5.03407753262281      0.78796885339775     -0.21301298439443
  O   5.46927568364224     -0.51057873188930     -0.22059308009711
  C   4.46291454245518     -1.41764487494853     -0.03096839587771
  O   4.97821372301182     -2.69919255700309      0.01310212249582
  C   5.30564667386426     -3.27370262916052     -1.16669090295465
  O   5.08254934447925     -2.84579204159671     -2.25721747139730
  N   5.93658053090469     -4.47464548595616     -0.89711724867034
  C   6.38878395197490     -5.31772731905682     -1.89318192659858
  N   6.97470602769593     -6.42823924556665     -1.74091557112217
  C   3.15460930487507     -1.14296488719798      0.13706932095081
  H   6.08089663993995     -4.71054977841336      0.07293183017711
  H   6.19027331860964     -4.92627027988238     -2.88702832071011
  H   7.09219169848225     -6.66400436054355     -0.75466801543869
  H   2.47508465366955     -1.97012249565737      0.28295496025738
