20
Coordinates from ORCA-job 18685optt
  Br  1.27646157968096     -0.24103348402676     -1.24852320243143
  C   2.95534974999322     -0.10626188270445     -0.38381346893840
  C   3.70992142329524     -1.27029751406472     -0.21335248315959
  O   3.25375525566520     -2.53543793003113     -0.33915291135481
  C   4.36229505754644     -3.39081478593594     -0.04801535428859
  O   4.19649561181855     -4.58671199929188     -0.08600066207386
  N   5.45438098667957     -2.64000830363610      0.23436808642405
  C   5.04816666351036     -1.36608779207817      0.12708048611527
  S   6.08661644809723      0.01262853106198      0.34355410134715
  C   4.89674854592419      1.28087940696906      0.22096108164445
  C   3.59039527614921      1.13594483985172     -0.13256378536598
  N   2.81765533609900      2.33847959068115     -0.16811107504530
  C   1.64139664579169      2.55483809122999      0.45985286239169
  C   1.31357812681669      3.87398530039283      0.25654673051632
  C   2.37783873002554      4.37636802320260     -0.51508815816683
  N   3.28343694678990      3.44536514629903     -0.76217528104921
  H   5.26849184333937      2.26543861777173      0.46212318473892
  H   1.14642894201596      1.75814950544198      0.98746306592529
  H   0.43786858561839      4.39095707821236      0.60841480925196
  H   2.51871824514325      5.37161956065471     -0.90656802648109
