19
Coordinates from ORCA-job 18694opt
  Br  1.05425092147685      0.15098296969168     -0.29093753572655
  C   2.93059910405537      0.12333589802382     -0.12235027819339
  C   3.63284767225624      1.33169400742729     -0.26882140916557
  O   3.12239154039584      2.49754538270839      0.29135868193153
  C   3.78816087676252      3.66495841119355     -0.00012036915722
  O   3.18496833465020      4.69686606425473      0.04494924329380
  N   5.14771797099466      3.58295399616983     -0.24032768924457
  C   5.71798866551047      2.42429948020669     -0.15221600246690
  N   7.06681000402326      2.32145098325793     -0.13209730445157
  C   7.78126206996708      1.10751877787854     -0.05197553711746
  N   9.05387625070262      1.06408807640900     -0.03189869037269
  N   7.02041239133939     -0.03432406462134      0.00795065942657
  C   5.73642193161594      0.05088422366971     -0.00907545546233
  O   5.02778448246444     -1.04885383664595      0.03469093258761
  C   3.55176100532258     -1.11819653386826     -0.04010391063072
  O   3.13257763791171     -2.24657605543702     -0.02825514483532
  N   5.04317608337986      1.24320062589077     -0.08648358371382
  H   7.56111603022967      3.19999733374133     -0.15467127070128
  H   9.45187702694102      1.99817426004926     -0.08461533600015
