24
Coordinates from ORCA-job 18697optt
  Br  1.00267273567694     -0.02779421201352      0.16133123828970
  C   2.88085133521826     -0.06765319700992      0.02614290256626
  C   3.60280711483630      1.14747365605790     -0.00105148295557
  O   2.87875788121578      2.32937449254075     -0.03303353630999
  C   3.48748968125767      3.51906485692106     -0.15058929666842
  O   2.83181513205500      4.53141392836530     -0.23331728503354
  N   4.84830030960131      3.51655870902745     -0.19254277514642
  C   5.72540638224450      2.41214763964999      0.14966894160366
  C   4.97367357869395      1.12536076232236      0.03102644969921
  C   5.64813599065475     -0.08308039349353      0.01742893730371
  N   4.94307619207763     -1.30066787580284     -0.06715027504658
  C   5.67703196902715     -2.48776123563578     -0.29298671629578
  N   6.93341011880349     -2.52951435188211     -0.58046378614913
  C   4.89766795342533     -3.68664073390953     -0.14741920469673
  C   3.55619799489668     -3.59286428519260      0.03163913963580
  N   2.85195498612761     -2.44708760523360      0.08547925899591
  C   3.53516069144568     -1.31056836200876      0.02244077548015
  H   5.22899379121238      4.44724511096788     -0.21621240580690
  H   6.11965881036122      2.53141195953990      1.16742456703106
  H   6.57919013923658      2.41196529332885     -0.53344884288575
  H   6.69718428407490     -0.14742614565246      0.25514639460292
  H   7.32032961087448     -1.60522418534794     -0.73054993362687
  H   5.41360815862627     -4.63033365377722     -0.23431888294526
  H   2.96262515835606     -4.49940017176164      0.12035581835855
