21
Coordinates from ORCA-job 18699optt
  Br  1.07157457659792      0.87140573315545     -0.21157612891130
  C   2.94185425061937      0.53533054094001     -0.05018851414403
  C   3.39435749267905     -0.77717585822820     -0.13710467679886
  O   2.57615785389181     -1.79894627849021     -0.42752361276236
  C   2.69377761491895     -3.10863136357053      0.23034257584325
  O   1.65751190048855     -3.46377768889897      0.73085203888646
  N   3.81064442525025     -3.82497239880791      0.11735749862485
  C   5.05948647777359     -3.40838509698376     -0.11237669432411
  C   5.54156724996260     -2.11141466897943     -0.09137983803809
  C   4.77166817229937     -0.92591417953471     -0.01287499184955
  C   5.63338572131017      0.18757729707149      0.09840391343514
  C   5.03782441314048      1.46033088721038      0.15667888642888
  N   3.72834771533860      1.59940603936811      0.09019864258883
  C   6.95785818352374     -0.30434600649316      0.06311206109480
  N   6.85953134494286     -1.68811832926572     -0.07395771359251
  C   8.17950328134805      0.36904403161069      0.09937959554861
  C   9.23954281225879      0.95237160825698      0.13037716155164
  H   5.78652705641303     -4.20695850256828     -0.25250205772876
  H   5.62993557329506      2.36405448869263      0.24488311934720
  H   7.65397870705245     -2.30173383799489     -0.03553330373382
  H   10.16496517689521      1.47285358351007      0.15743203853372
