22
Coordinates from ORCA-job 18692optt
  Br  3.78444592223908      0.97133307987859      3.19697427447953
  C   3.30837018666103      0.57654839862383      1.40359981527982
  C   2.57697179812203     -0.58855333177660      1.09945935503955
  O   2.06708099234359     -1.31588269902911      2.17085801450682
  C   0.80970589881497     -1.79293945071281      1.92798561686644
  O   -0.14659218259101     -1.11473095538181      1.71382267434320
  N   0.82266650848746     -3.18792543027883      1.92097334902679
  C   0.40478355913577     -3.67552746500970      0.64846958649092
  C   -0.41628234450315     -4.73796101342386      0.46914548677460
  S   -0.64368046996368     -5.07037392927758     -1.19074984950776
  C   0.36449495980819     -3.76541038005916     -1.65433043220005
  C   0.89321038425026     -3.06481919471782     -0.58287700369747
  N   1.73020946871299     -2.02395315381687     -0.78523524025925
  C   2.37573138546432     -1.05188294705057     -0.21194533154141
  O   2.99633942457678     -0.26329361611342     -1.21577908482949
  C   3.75458937422334      0.82262428167203     -0.90686988627743
  C   3.94119101805977      1.26812966725563      0.35304370237803
  H   1.76197426672949     -3.50421676249615      2.13358727972793
  H   -0.89820186807396     -5.31867525187262      1.23798954611334
  H   0.54364304320973     -3.54659745431134     -2.69336684702774
  H   4.16128584816164      1.29610631280331     -1.78805714929611
  H   4.55806282613134      2.13500129509487      0.53830212360974
