25
Coordinates from ORCA-job 18706optt
  Br  1.82052445061697     -1.19467586176447      1.71589783689647
  C   2.70029131999666     -0.08080886091806      0.46962292889949
  C   2.29043013207405      1.20945028256234      0.30389363160423
  O   1.27456296685513      1.66244562747527      1.12832201686871
  C   -0.03035360054806      1.41244245199733      0.84269196724612
  O   -0.41572004455670      0.65162184541315      0.01517959657820
  N   -0.86452181428882      2.28877677912371      1.60673132838804
  C   -0.87172434938922      3.48222525576420      0.75315143072178
  C   0.29565216041914      4.09614858357155      0.53019429286322
  C   0.75794467128419      4.91257746672528     -0.54659932296531
  C   1.96656236258488      4.58054566332478     -1.12751186975141
  C   2.84201053783914      3.47101919132824     -1.04048031198512
  C   2.98441478063836      2.11657196154353     -0.57847465816924
  C   4.12468042721508      1.46806943773109     -1.16930385793418
  N   4.53286129576819      0.24589995773532     -1.04873621787524
  C   3.83634588419945     -0.63968310835640     -0.23837282757195
  N   4.18707345730566     -1.87538518031880     -0.10244625263548
  H   -0.38135861626025      2.50602388204915      2.47261470338940
  H   -1.76687866108723      3.62070436450852      0.16223338896870
  H   1.11512179410157      3.75912183279794      1.15490627400767
  H   0.15634013558003      5.69973949050228     -0.98415178913945
  H   2.31134341871347      5.28943459494129     -1.87656904235345
  H   3.70539558478197      3.68633323140932     -1.66165533407944
  H   4.73560434875945      2.08953795926579     -1.82219293935369
  H   5.01139735739686     -2.01213684841241     -0.68594497261806
