26
Coordinates from ORCA-job 18702optt
  Br  1.06479848795190     -0.36355649486039     -0.21266276860050
  C   2.93533379063320     -0.20680878626659     -0.19504094845521
  C   3.75502770848884     -1.30030796263235      0.11376012609048
  O   3.15668292544640     -2.47985204520824      0.55464322513483
  C   3.35272592173134     -3.69323103028017      0.01314336920231
  O   2.50658580597238     -4.54668330128678      0.15005585683256
  N   4.50467820823012     -3.94123067841090     -0.68777807108593
  C   5.85456381708389     -3.39900090592311     -0.53953728400989
  C   5.96186597220310     -2.33724001979426      0.54115967220218
  C   5.12568108674996     -1.15422402351191      0.17257313569257
  N   5.76405158710149     -0.03073217129287     -0.14125317403202
  N   4.94355894853021      1.00701665970745     -0.58566383117016
  C   5.67241918494743      2.23407838054691     -0.70885775953030
  C   5.61456111235547      3.06833775466928      0.55467473575130
  O   5.91975504313991      4.23090420907981      0.60877198680457
  C   3.53573939252231      1.05440230972816     -0.49244193242360
  N   2.84611296485223      2.13486951754031     -0.68769260561021
  H   4.46299160723107     -4.87769868432521     -1.05549855231275
  H   6.17745420245159     -2.95913157578833     -1.48697126548896
  H   6.52214616249283     -4.23634899768913     -0.30977892963762
  H   7.00020359637308     -2.01593419937123      0.62157664453842
  H   5.65166949491300     -2.75938523087938      1.50234097397649
  H   5.33596882467756      2.83810757615898     -1.55441266439688
  H   6.71582133490299      1.96596243730860     -0.88479815414141
  H   5.27220324945954      2.51441952508602      1.44972627340676
  H   3.42839956955793      2.93726773769536     -0.89203805873701
