28
Coordinates from ORCA-job 18707optt
  Br  0.99619971161650     -0.57617537067471      2.37283243717440
  C   2.37233628642050      0.22904592897855      1.32173999787205
  C   3.21887460411955      1.21050368717914      1.89195175180202
  O   2.68225520436636      2.01174931660417      2.90425272870824
  C   1.64279065999508      2.79327168350281      2.40048550210391
  O   0.75291603596393      3.14793341711829      3.12457192226062
  N   1.76902379060539      3.10797095156010      1.08150225672531
  C   0.66764317644342      3.35891727983452      0.16878204913649
  C   1.15563565417765      3.26873471638525     -1.29238853738630
  C   1.18451474789188      1.87969402717991     -1.98393138841914
  C   2.55115315697408      1.17260439396737     -2.12527690165934
  C   3.10815851577249      0.80556349500339     -0.76795176051058
  N   2.25566174505569      0.16518326010095      0.00675150424447
  C   4.34244385202915      1.33065583129671     -0.24534476932885
  C   5.43105444741386      1.78112664622499     -1.03899139775295
  O   6.45277548860646      2.34074196973722     -0.60431304809198
  C   4.28209839084343      1.64616443076824      1.15809223004266
  H   2.60868622518113      2.78846972665009      0.62754253144930
  H   0.25362995517962      4.35331123204288      0.35191589894988
  H   -0.13334364253837      2.63386743279604      0.34613026118449
  H   0.48834558538663      3.90777458174272     -1.87453740141951
  H   2.14306368597268      3.74064603204026     -1.35471286392045
  H   0.78257629972766      2.00519856934368     -2.99371897332468
  H   0.50935027762732      1.20145909932316     -1.45882480981992
  H   3.24612945932189      1.82232941597458     -2.65811541728600
  H   2.40485359727471      0.27905448150183     -2.73899434747946
  H   5.33675953657815      1.60186599316920     -2.12575438217239
  H   4.91541355199307      2.44333777064859      1.53130492691771
