22
Coordinates from ORCA-job 18711optt
  Br  2.96763282022979     -1.18169327824017     -2.26162266662852
  C   2.64307525092265      0.03151466824224     -0.82728844192204
  C   3.22092344458732      1.31491628886822     -0.86466944443540
  O   3.04846713763960      2.10936274442871     -2.08752893067086
  C   1.74463986003725      2.42717490521474     -2.28628849226298
  O   1.06860515879852      2.00677078908844     -3.17625787873482
  N   1.25327662909618      3.33215638514351     -1.31890902963517
  C   0.10001135661180      2.98662460960098     -0.62093852728471
  C   -0.06043670911345      3.08160972437612      0.70137709311211
  C   0.96354147609612      3.52846907236728      1.69969752378693
  N   1.12235463555095      4.69533872503159      2.14746427903637
  O   1.74301768811924      2.53058339682622      2.24585459349055
  C   2.22403868996907      1.68307976584825      1.27143137305130
  O   1.64840175098966      0.48990812664105      1.30331125154563
  C   1.95932609470882     -0.49331422450271      0.28188064789730
  O   1.54880502525178     -1.60433704156248      0.52379449857100
  C   3.09716303009931      2.09501323315300      0.34667292666162
  H   1.98777953583306      3.67253008929006     -0.71872620492848
  H   -0.68404320683799      2.57715017892270     -1.24496969105922
  H   -0.99849733071810      2.75014763650788      1.12754171167916
  H   0.44718642741766      5.31241303215848      1.70193298740487
  H   3.53673123471072      3.08058117259585      0.44024042132537
