24
Coordinates from ORCA-job 18718optt
  Br  2.62949325857431     -1.31900769486734     -0.09514750647818
  C   2.51152419451144      0.62012978207877      0.05082282081069
  C   2.94503754476193      1.36069228676906     -1.09521098107204
  O   2.16348198227272      1.47568123278020     -2.26733252592359
  C   1.03901182934609      2.25968811142148     -2.22768845972878
  O   0.20966227286664      2.13846665573056     -3.09807109555767
  N   0.97115148216058      3.13116721401596     -1.20214543598889
  C   -0.18028421286502      3.97807531705157     -0.98824901562676
  C   -0.37013669812461      4.30271529409164      0.49331916274493
  N   -0.98513924226815      3.20716584189321      1.22731374205157
  C   -0.36276797912568      2.58536569468245      2.12423443008033
  O   0.91951196971061      2.77938717209199      2.55375659857678
  C   1.93313546304426      2.46189104599168      1.58899323956963
  O   2.63301244100144      3.38371213123239      1.19116693443872
  C   4.15133769332490      1.88545377488399     -1.03754462157572
  O   5.22902000191802      2.31009904713026     -0.92582521702881
  C   1.93002850985851      1.10183270694544      1.21771583457252
  H   1.77024408945449      3.25026122873035     -0.58959718601306
  H   -1.05963656231200      3.46699928750804     -1.37904918686629
  H   -0.07105873213510      4.92026508826453     -1.53660172427474
  H   -1.07458211587918      5.13674995247662      0.54522993021646
  H   0.58067051061377      4.62685009730211      0.92674678761936
  H   -0.88484096178125      1.81150542810271      2.68558502028628
  H   1.41012326107123      0.41385330369226      1.87057845516727
