22
Coordinates from ORCA-job 18728optt
  Br  1.53167334956752     -1.83169582005587      1.46533973960619
  C   2.57339038917947     -0.55233897526975      0.56153940780156
  C   2.31511079709735      0.76334131389558      0.60520623189994
  O   1.26226999053451      1.19914851673060      1.39622945521506
  C   0.16154191004286      1.57590975870947      0.67102178853635
  O   -0.47685465347407      0.84719936315260     -0.02268983521813
  N   -0.05450742930523      2.93492988190150      0.84901318328273
  C   -0.06453436989529      3.62891401137229     -0.40110896512409
  N   0.95111642458081      4.23306583556523     -0.84577799488612
  C   2.22482632916242      4.18213487614858     -0.29116627432505
  C   3.10698494057964      3.16374546907236      0.00813513603948
  C   3.21729559712090      1.72680100661751      0.00567139493166
  C   4.41295671228706      1.11681736889973     -0.46427457815849
  Br  5.80445436421942      2.18486227925819     -1.20385460494003
  C   4.67142937916219     -0.28528160413278     -0.51183349969180
  N   5.67604600841022     -0.96291425225698     -0.91623722438839
  O   3.62026409507610     -1.10089621293572     -0.07276123090626
  H   0.70973110436360      3.30574310656923      1.40855175763233
  H   -1.00548955744962      3.64034887208334     -0.93768489344901
  H   2.69497568292885      5.15804713520995     -0.32388513101357
  H   4.09224385972394      3.60210937422412      0.12549688149613
  H   6.39807507608730     -0.33699130475920     -1.25293074434048
