19
Coordinates from ORCA-job 18723optt
  Br  0.70861633749239     -1.73264532692798      0.25583618172565
  C   2.39723644122784     -0.91382792164434      0.15581592339477
  C   2.50119607084673      0.45536782804495      0.25998715282449
  O   1.39032047275584      1.18920754647804      0.51806694489058
  C   1.11804258437768      2.24118405739340     -0.41967555016628
  O   0.22223265289368      2.06437335869538     -1.19164315702192
  N   1.82063073605429      3.37793871832093     -0.22341005733336
  C   3.03683230531769      3.38937633504597      0.26589197703927
  N   3.97651398251280      2.45408805783957      0.38411583992052
  C   3.76288962539186      1.14694903404651      0.21207778001830
  C   4.88161578952623      0.27471389932429      0.05461373152911
  C   4.80466338995722     -1.08770280353168     -0.04196737325916
  C   6.16132678649346     -1.47972192134625     -0.17149632406691
  N   6.95863029758064     -0.45399872200035     -0.15666342256883
  O   6.15833774204300      0.66819499232851     -0.01660372329476
  C   3.54591959009849     -1.80688262336014      0.00852047848714
  O   3.46924062915907     -3.03065072405924     -0.06269945949111
  H   3.39145102449695      4.37964510981188      0.54706613836997
  H   6.57030354177408     -2.47260889445947     -0.27283308099748
