23
Coordinates from ORCA-job 18722optt
  Br  1.37003163542255      0.21980539700847     -0.22203156377553
  C   3.20661395470320     -0.02618341234278      0.05521135121357
  C   3.79532758853784     -1.21019199045625     -0.09263491904382
  O   3.16299820739838     -2.32876385356172     -0.50658533673484
  C   3.63668322537494     -3.59255736878058     -0.04178408606970
  O   2.84731454644272     -4.49325571606327     -0.13603924033196
  N   4.90898908993129     -3.64834296400227      0.38612908521002
  C   5.64736158185969     -2.54832505188156      0.37267284490644
  N   5.17956765507888     -1.30567190346217      0.14206172832380
  C   6.01637920951720     -0.15272543732249      0.07234301305484
  N   7.31611777613333     -0.24045157069362     -0.02222445471954
  C   5.34308917534707      1.13002979679894      0.18400690052042
  N   3.95367743087900      1.08980932282807      0.38511275143464
  N   5.84325316586833      2.31877106622980      0.15567190566571
  C   7.25264047944743      2.56459620378793      0.04070354844022
  C   7.49668486836516      4.05222961634722      0.04422838282517
  O   8.58707886454444      4.56210606895218      0.03791209379369
  H   6.69494658556040     -2.62310353813265      0.62302566893011
  H   7.61558014365160     -1.18919804109496     -0.21730464310291
  H   3.51581565997786      1.99477402844871      0.31822061562767
  H   7.69285286821055      2.16050216091923     -0.87949129015071
  H   7.84682863921873      2.12118361961739      0.84655079698316
  H   6.57616764852925      4.67096356685638      0.04824484699957
