20
Coordinates from ORCA-job 18725optt
  Br  1.79177346808233     -1.89998179848159      1.76790919086450
  C   2.89244373515171     -0.75484831206798      0.75856012658998
  C   2.61843488267788      0.57894102782269      0.69683348058243
  O   1.59292052819960      1.14410314892798      1.41201699757574
  C   0.55987771608841      1.66169094427047      0.59954723618932
  O   -0.43438451873747      1.02543507792537      0.42826355270951
  N   0.77289742645794      2.94515924534965      0.17865146261820
  C   1.96895206629448      3.42224824357202     -0.00025003281057
  N   3.15681958044134      2.81402658246467     -0.09130703536053
  C   3.46545197769027      1.45243475773331     -0.05109385303480
  C   4.59404850097958      0.98749805410753     -0.68077016746681
  C   4.96746000790037     -0.39283886793186     -0.65480064755092
  O   5.97133356003964     -0.82609650019510     -1.22457161568052
  C   4.05702764058039     -1.34924101522847      0.10725606672021
  O   4.31585583312074     -2.53954775066177      0.17213335062285
  C   2.03691353895108      4.89808442579470     -0.23316114394368
  O   3.05774688083807      5.48907030508953     -0.47660358289323
  H   3.90815520228961      3.43970816339331     -0.36199405995639
  H   5.22633129220078      1.66075749851997     -1.24760176318661
  H   1.05594068075320      5.39339676959556     -0.17101756258867
