26
Coordinates from ORCA-job 18726optt
  Br  0.64257389112903     -1.49956236747940      0.00677664096556
  C   2.33139009893992     -0.65799540282960      0.25226349251138
  C   2.40284286046160      0.64782597734434      0.65265117739432
  O   1.22363056064607      1.34277065201613      0.93113230322308
  C   1.09020468390106      2.56330684386765      0.37071080758983
  O   0.44449685659871      3.42136752977015      0.90068614850156
  N   1.74234416730386      2.73396281274584     -0.85600975156962
  C   2.82227102627245      3.69072428557264     -0.83755091359277
  N   3.71710012415039      3.76566404815671      0.03713045176771
  C   3.74112697168911      2.77431723853105      1.15707276242800
  C   3.63857184096050      1.32930991241010      0.78278101106711
  C   4.80634614560987      0.61694480216715      0.33585906684239
  C   4.73166096970065     -0.70734903315797     -0.01691743448386
  N   5.88464201628662     -1.42081597957461     -0.43864565181867
  C   7.11241680721361     -1.45635592648081      0.16214514265476
  N   7.55796789132352     -0.82390699046114      1.17176991336490
  C   3.50884980924490     -1.41510279602764     -0.02823226132684
  H   2.06325128140527      1.84663515325797     -1.23646076292470
  H   2.83028743907353      4.37412689085205     -1.68332877804124
  H   2.96045265700862      3.07189398227901      1.86440709746516
  H   4.69466716099318      2.94554640892591      1.65733912261186
  H   5.74735359660148      1.14709286658277      0.24751270445882
  H   5.70474185323398     -2.14188988004774     -1.11850787623523
  H   7.78561130597405     -2.14796849263658     -0.34811332681174
  H   6.83163304020806     -0.22716757821248      1.56701936762851
  H   3.47256494406986     -2.48837495757152     -0.14249045367027
