23
Coordinates from ORCA-job 18737optt
  Br  2.23359606676585      1.87407066448746      1.98841757053307
  C   3.14633626068704      0.63928213032906      0.89451198009665
  C   2.61581878861911     -0.64465955948985      0.63444283225555
  O   1.45319182089205     -1.01582910526903      1.27678429246862
  C   0.49711313584586     -1.65137210095279      0.51097402056781
  O   0.01648507608050     -1.17484360815361     -0.46994471227321
  N   0.12894791315070     -2.85944921883489      1.10155135675880
  C   0.13128534427890     -3.97807706538352      0.18290305150626
  N   -0.85436226317080     -4.33526475840283     -0.51398506343805
  O   1.30177357383806     -4.62560901101112      0.14748648443970
  C   2.42580379821870     -3.73593820628258      0.51933587681809
  O   2.79541284717173     -3.83612059680978      1.67775269524547
  C   2.74155048417299     -2.86040304643311     -0.50113491043871
  C   3.25486788424982     -1.53895362874960     -0.19513610891678
  N   4.39407246518363     -1.07680776426105     -0.87521165305960
  C   4.97456108193746      0.14306723917932     -0.57568659087881
  C   4.36755767718473      1.00026430591336      0.28071150094098
  H   0.76627260330638     -3.05520218090063      1.87113779044551
  H   -1.64283230700029     -3.73725949598592     -0.28568311715265
  H   2.31728453259017     -3.03382737062448     -1.48273823328313
  H   4.94872653773168     -1.79996688387833     -1.30169490018648
  H   5.90975434930535      0.36810286012400     -1.06614051956008
  H   4.81678232896035      1.96179640138997      0.48334635711099
