22
Coordinates from ORCA-job 18738optt
  Br  2.30056608940633     -2.25239583874571     -2.26416427466374
  C   2.32351368545053     -0.92943092012240     -0.92571383293795
  C   1.35397276310843      0.03186297518525     -0.88445981335315
  O   0.32793055589079      0.21324557357340     -1.57847458292286
  C   1.07755214210248      2.85992935756976     -2.25897383498158
  O   1.03786983773900      2.83273330524303     -3.41868439070369
  N   1.18415373036118      3.06300574008555     -1.07199631009209
  C   0.79981644069514      2.20314785083098      0.03868169376227
  O   0.87756883844761      2.96379051401857      1.22190480368709
  C   2.12643460998990      3.30842351304566      1.64941947628283
  N   2.36915595911791      4.37525938502537      2.29219308344912
  N   3.08634316522315      2.38381115443199      1.37525536815214
  C   2.87218952575708      1.20041987350185      0.68305797783669
  N   1.61763052647670      1.03797146574665      0.13838452869052
  C   3.83125411952908      0.15408897250378      0.68456129756905
  N   4.94902508726843      0.08940389054304      1.36041427765166
  N   3.48247741968624     -0.89425180988002     -0.12826282254469
  H   -0.23125623318518      1.89288037536773     -0.08155974613803
  H   1.52275141708376      4.93189782328076      2.34933047094104
  H   4.03078744623459      2.64212480569496      1.60987133490653
  H   5.01330993394615      0.84843206828948      2.02956094848026
  H   4.01095293967064     -1.74035007518973      0.00965434692858
