22
Coordinates from ORCA-job 18743optt
  Br  4.31756573247640     -5.36748467535207      1.23004969650127
  C   5.11403991801380     -3.65953407012235      1.17207313018076
  C   4.29643665841601     -2.53536445154001      1.33009252311704
  O   4.93638384898883     -1.28888312325994      1.31080180679696
  C   6.26380422442463     -1.15980380288790      1.41930391349195
  O   6.77372787373625     -0.08138620347478      1.44602760070099
  O   7.00095977752392     -2.27425452344070      1.46444180728972
  C   6.47515219414470     -3.57346165429291      1.38934585663369
  C   7.35646607007020     -4.54784042576097      1.87833657636953
  C   8.02306383152530     -4.31524450062838      3.12984950250287
  N   9.00338028250148     -4.91686936649035      3.68222795293291
  O   7.45485553228878     -3.29233994021732      3.92787289217168
  C   6.10818846951922     -3.27177734103888      4.00422463670122
  C   5.40796425484391     -2.13747921575312      4.09261916278740
  S   3.64605747717643     -2.13172745075012      4.03224512266136
  C   3.20015803277446     -2.57288527963100      2.30603670961841
  N   2.02091388311211     -2.94474505151637      2.04371115676821
  H   7.26872162378341     -5.56942687353665      1.54303442983130
  H   9.41872584982980     -5.54420592576148      2.99835322096307
  H   5.61410127979354     -4.23904009753290      3.94531722450498
  H   5.91577072727888     -1.18076205182168      4.11136345142643
  H   1.45956245777787     -3.01848397519007      2.89367162604821
