24
Coordinates from ORCA-job 18749optt
  Br  0.62518945272171     -0.56425000121350     -1.23730631444046
  C   2.94045066671837      0.06463390002737     -0.41832461515608
  C   3.61733441161453      1.05454645609882      0.18284640045568
  O   3.19399514945146      2.32070840337826      0.60327352660878
  C   4.23726451448378      2.94057614998632      1.16342434847907
  O   4.24126917479244      4.03493077251807      1.62562521957391
  O   5.34307244055416      2.12920332308962      1.13628057527209
  C   4.97561717442342      0.94966933054324      0.52199889562976
  C   5.72759560718869     -0.15102647040905      0.26801269385455
  N   7.06318420695483     -0.37496874408820      0.60224760187330
  C   8.00001864596174      0.71786251186683      0.42681519506763
  C   9.39488614145706      0.28753770055413      0.87994444977362
  C   9.90854801768297     -0.82651967640461      0.08600948813171
  C   10.27645465840628     -1.74529084166531     -0.58954952340393
  C   5.03437027714055     -1.24702682319679     -0.39523431977779
  O   5.60349192731181     -2.30089581245185     -0.69023485773100
  N   3.69697034471079     -1.03938800501484     -0.67295717840382
  H   7.36132504546078     -1.23471471178638      0.14664850879735
  H   7.68211084424595      1.56177997156920      1.03824495659106
  H   8.04426397955718      1.06157993766053     -0.61578127881961
  H   9.35034868153243     -0.01141021055800      1.92935439828940
  H   10.08029709250636      1.13374799029688      0.80162377358448
  H   10.58967765142129     -2.56703855151531     -1.18699641452969
  H   3.22826389370113     -1.81424659928544     -1.12896552972003
