19
Coordinates from ORCA-job 18753optt
  Br  1.28314617316909     -0.33482174029986     -0.18736949224427
  C   3.09153393082904      0.08614852376776      0.30990088700176
  C   3.69065177605968      1.26730977365206     -0.08818965964064
  O   2.89522800292935      2.37691818031919     -0.38986850181278
  C   2.88939187997209      3.43209572162332      0.42970265092252
  O   1.92631017364055      4.07935674459642      0.66594474438937
  O   4.10176729490232      3.74385892022290      0.97961537550364
  C   5.22720716605376      3.67601324487686      0.21134446652481
  C   6.10758049108629      4.68165759329066     -0.09398259446175
  C   7.11919777857955      4.00992570710016     -0.80638573386866
  N   6.87505832220297      2.71692143750401     -0.93089608640364
  N   5.71065247773926      2.51798338938075     -0.29471395378820
  C   5.06685629618974      1.26336056136213     -0.20620902041487
  N   5.82841199940147      0.16683075849253     -0.16306636097708
  C   5.25432161867861     -1.00351005906975      0.11518159203718
  O   5.73704500739963     -2.10393224324606      0.11019440171845
  O   3.86268107384473     -0.98282463242844      0.55019243806355
  H   6.02426582376868      5.71905495654509      0.17552368089701
  H   8.01869271355309      4.42065316231023     -1.23691883344642
