21
Coordinates from ORCA-job 18759optt
  Br  1.13481482367324     -0.14111431544526     -0.41813354028549
  C   3.00650389823670     -0.09513905208300     -0.24638676029747
  C   3.72150857603678      1.09889839011776     -0.28029120210560
  O   2.99122186302757      2.26092445061162     -0.48444683941111
  C   3.44564688495174      3.45519309722527     -0.05326155984445
  O   2.70611378183853      4.39069150628491      0.01396380399388
  O   4.72161693336295      3.53128219804858      0.29818779649815
  C   5.67383010388424      2.55033255893478     -0.17674190836898
  C   5.09054322981435      1.17648046425912     -0.14555370975255
  C   5.88817955337536     -0.00237137746224      0.00017948701000
  C   7.30533851549204      0.00487221254527      0.04003020880431
  O   8.04502135616381      1.00428479711913     -0.07732922382921
  C   5.13959021120207     -1.21654819574494      0.05928702959537
  C   3.75179617200918     -1.28380702996284     -0.05945509920482
  N   3.21052829529332     -2.55050304646121      0.01659232095019
  C   4.13761720963708     -3.42806373478187      0.18399082784555
  S   5.75328557239154     -2.81802738169544      0.26498624091527
  H   6.53552770258865      2.63372357387744      0.47436338417945
  H   5.98556592626868      2.85311551424752     -1.18137616396793
  H   7.76683749512353     -0.99177960805246      0.18065477319231
  H   3.94691189562856     -4.48844502158216      0.27474013408313
