27
Coordinates from ORCA-job 18767optt
  Br  1.76851735508275     -0.11534872095938      3.28311991441730
  C   2.31912199628513      0.44830916129384      1.54584732826958
  C   3.09949104012940      1.62009600699733      1.43130846122317
  O   3.20791064786420      2.53382037329217      2.47635491337548
  C   2.14871200850603      3.24296839333765      2.90875929034473
  O   2.14109880821527      3.70168596196885      4.01237275951639
  O   1.08891916927255      3.39602474819266      2.09435871571590
  C   1.20720864039999      3.69421052301149      0.68871009662222
  C   0.41098693670565      2.66428271089623     -0.10646387185516
  C   0.83767412931320      2.49317779542720     -1.56997578227592
  O   0.48638068230313      1.21167506349564     -2.07418932427868
  C   1.51654557572410      0.19205060936095     -2.03598990408504
  C   2.36605763351687      0.17495751139902     -0.81675244649169
  N   3.49462238194978      1.02042931814091     -0.81015167163589
  C   3.73962204107062      1.94786801503893      0.21614662673304
  O   4.41005917530107      2.95925948736918     -0.03041680926217
  C   1.90144284121993     -0.24678751953403      0.42645019562467
  H   2.25404564892162      3.73426597994482      0.39115287130606
  H   0.79039757714742      4.69821754671419      0.57558684579757
  H   -0.65462200485384      2.90236354111055     -0.06231140852607
  H   0.53589493294417      1.70730356826723      0.39092281054304
  H   0.32453728698115      3.21725196272662     -2.20822952938642
  H   1.91070741543986      2.67624548843750     -1.67299828600104
  H   0.96379558836572     -0.74310805998524     -2.13489413950193
  H   2.14246576673389      0.32180496849597     -2.92996071548041
  H   3.85589874016586      1.33629681648870     -1.69766619197046
  H   1.12650798529434     -1.00032125092913      0.49690925126172
