28
Coordinates from ORCA-job 18762optt
  Br  1.18515529024952      0.54310162974646      0.62394627125933
  C   2.89772580492576     -0.35731431847171      0.44468128368139
  C   3.13791941208670     -1.51081193710436      1.20395650897778
  O   2.05933089895365     -2.40818224625042      1.42345557738367
  C   2.06270204433402     -3.69099232222702      1.04135324080729
  O   1.29219089073300     -4.46983752194189      1.53162598296178
  O   2.98650195510321     -4.13377200518189      0.15992438931963
  C   3.34304360150736     -3.46302192971521     -1.05821151227968
  C   4.72717239080691     -3.94226342007397     -1.50744472934307
  C   5.86436269808661     -3.96795700326616     -0.47242896006430
  C   6.47274644836951     -2.60272988397031     -0.09904359696592
  C   5.35911068242704     -1.64329949359369      0.23352991992710
  C   4.46380356507764     -2.02523124793720      1.19935126169743
  C   5.07139128071235     -0.53000465237997     -0.60401683825408
  C   3.84384714579385      0.18315801977477     -0.37144333192681
  C   5.93194961491689     -0.12566309641441     -1.64382165809493
  C   6.66620140718792      0.23542410923290     -2.53911197110964
  H   3.29289571678718     -2.38453382115473     -0.95792298328249
  H   2.60957406028476     -3.76697027016701     -1.81095188401703
  H   5.01432060954222     -3.31508928198713     -2.35816315873740
  H   4.61075410649542     -4.96162890178433     -1.88598912801881
  H   6.65731015707230     -4.61112466892267     -0.86684333701444
  H   5.48833006321048     -4.45646188626283      0.42868753870557
  H   7.06274924626554     -2.21574154830019     -0.93107709917981
  H   7.15115659493705     -2.73722729196192      0.74820927486080
  H   4.68382381898923     -2.88806105486811      1.81881188148961
  H   3.67336402846111      1.13064927933846     -0.86608807930945
  H   7.31256646668266      0.55858676584456     -3.31697486347351
