22
Coordinates from ORCA-job 18765optt
  Br  2.26934797996231     -2.34370454393047      0.70492014057049
  C   2.59675780090483     -0.76178215152711     -0.27948627213528
  C   1.66736091902982      0.14865825800485     -0.61547937075362
  O   0.31261285261808     -0.07010774834120     -0.33179454837397
  C   -0.38169662033087      0.98791412810125      0.08687637874038
  O   -1.56741369848317      1.06471047515967     -0.01092384890373
  O   0.39341953013971      1.93870964562372      0.68943874232838
  C   0.17330038645722      3.20982449877281      0.21997959670170
  C   1.07911124842583      4.07187206803438     -0.23047362996887
  C   2.56546157897909      4.18484430790912     -0.36934822428108
  N   3.10850112633002      5.34605067457818     -0.20501163205082
  N   3.39857695277658      3.16252539387563     -0.71059742184214
  C   3.17915754621310      1.79335018973404     -0.81969308742192
  N   1.96152312322261      1.33704230609969     -1.16125110686206
  C   4.27770932807614      0.95481773271373     -0.49858091764158
  O   5.43681303568122      1.30672723178346     -0.23663124263293
  N   3.92960055473866     -0.42196560035119     -0.54795473148367
  H   -0.87372184398545      3.49049279145484      0.22374330697693
  H   0.61650622377074      5.01728119138135     -0.49557716059466
  H   2.40245592606583      6.03342870789933      0.03320445950377
  H   4.37858828021578      3.41041808528520     -0.63781720093281
  H   4.65102776919188     -1.03710764226130     -0.20754222894250
