21
Coordinates from ORCA-job 18768optt
  Br  2.38820014879897      1.93254481463099     -1.96803316779727
  C   3.02202764180398      0.51482460901688     -0.90152941041838
  C   2.85225882055873     -0.77718476376908     -1.21490298698152
  O   2.02417241974087     -1.19351411011879     -2.22132899167573
  C   1.03013540832082     -2.05307192164938     -1.78926956852311
  O   0.33135572719488     -2.62327574161443     -2.56818579831684
  O   0.98459509848040     -2.06643235411492     -0.47530615668206
  C   0.25471177946299     -3.02529620972667      0.23201602947795
  C   0.58779498307017     -3.40561952341547      1.51645917436884
  C   1.60999956981710     -3.31311344443421      2.48458929797402
  O   1.55005824766301     -3.82829740054949      3.61432915628964
  S   3.34815203991681     -2.57544159969567      2.35894860530586
  C   3.48982015896197     -1.40495933110656      1.05844204149328
  C   3.64532760810318     -0.08421088340005      1.30286480874103
  N   3.57924652729819      0.85874385481975      0.30142996736663
  C   3.42460124964955     -1.83403445901366     -0.34347665658073
  O   3.66957358512072     -2.93981949553903     -0.76818119154006
  H   -0.63605255635262     -3.35862107438187     -0.27332885660930
  H   -0.19398864744444     -4.03460602919275      1.93591822284251
  H   3.79737172812308      0.30151439832247      2.30186383615118
  H   3.78463846171161      1.82387066493197      0.48968164511404
