21
Coordinates from ORCA-job 18774optt
  Br  1.43665620441081     -1.11206994713367     -1.72551152739906
  C   2.94641848387038     -0.10836696833087     -1.12624087791631
  C   3.26435345443869      1.08539894049924     -1.61296185003313
  O   2.40512662554836      1.73766085788594     -2.49426936040504
  C   1.41484947823943      2.41766429819513     -1.88582813561524
  O   0.35255525640480      2.62780194827849     -2.38682740682814
  O   1.80795296409215      2.84311392300407     -0.68157318823405
  C   0.87569332230398      3.00293187109667      0.37305406754388
  C   1.56671104982550      2.40119610309273      1.59701805232204
  O   1.83628029900860      3.03266513959627      2.58326618677193
  O   1.82671914302403      1.11561574285121      1.39918707018610
  C   3.06913037724770      0.53108353150480      1.95831482718184
  C   4.02654735982961      0.40559592782259      0.83145022476689
  O   3.59673470610327     -0.63722029553867     -0.08636095528381
  N   4.57656645668547      1.50517885094883      0.32870451953781
  C   4.39809171496581      1.84255025402683     -0.96345527311394
  O   4.97290866150566      2.73394598069110     -1.57907018462871
  H   0.68420983768084      4.05909556075150      0.54917496209507
  H   -0.05294163742843      2.47873255659199      0.14125904016373
  H   3.44700997323656      1.20050126116663      2.72679621311579
  H   2.76242626900676     -0.42707553700086      2.36887359577236
