26
Coordinates from ORCA-job 18773optt
  Br  0.97330253123787     -2.17946289849212      0.55757301142672
  C   2.52550881742782     -1.10011476765001      0.29715690509885
  C   2.36633469435754      0.29090717372303      0.23276104628456
  O   1.12687071822439      0.83613333446455      0.59354115120819
  C   0.68065496028015      1.84669214184385     -0.13572514306278
  O   0.84713018134358      2.02592405385257     -1.31017635950340
  O   -0.00173292076610      2.69343746158258      0.66198091523774
  C   0.27146834537614      4.05910826767719      0.37621857631733
  C   1.77530479690490      4.29351166975315      0.09437153362915
  O   2.54152228486738      3.27403136305758      0.68251109920595
  C   3.46087019287545      2.59216547028782     -0.17390691392396
  C   3.51438264433771      1.09906993762239      0.05390100536308
  C   4.74419039425053      0.49608523316825     -0.05658575513931
  C   4.91818985835890     -0.91927324851468     -0.01191289576896
  C   6.20396650537354     -1.50380843541543     -0.15119146933715
  O   7.27271713026785     -0.87946313955677     -0.32346945778256
  C   3.74534413894780     -1.70460754495843      0.17259772358629
  H   -0.05198736431067      4.59101164779858      1.26880396572684
  H   -0.31632442165710      4.40063178312777     -0.47936663645430
  H   1.94000235854286      4.31398824503613     -0.98407297914030
  H   2.06302167995293      5.26779511206312      0.50376573970586
  H   4.46241525337484      3.00105540570055     -0.01945879741401
  H   3.16722044178287      2.77426007915135     -1.21195224183066
  H   5.63192872052457      1.09950007102763     -0.20601714270446
  H   6.21869756673199     -2.61110010843601     -0.09969676869407
  H   3.81900049139222     -2.78447830791465      0.20934988796535
