25
Coordinates from ORCA-job 18770optt
  Br  1.93851370355204     -1.01026540215316      2.68917987025131
  C   3.01711620436491      0.10211842527493      1.49574037921096
  C   3.58602671941216      1.26119244495238      2.05270060828817
  O   2.69364677506932      2.09798436133727      2.79534246520356
  C   1.69397648214954      2.64341281902786      2.07964645861374
  O   0.80452369222203      3.28548141346348      2.56289244448452
  O   1.83848832440972      2.38341101378126      0.77928881518918
  C   0.89441984138701      2.82765331208574     -0.17459554311496
  C   1.52047600821425      2.61045481206195     -1.54997372864471
  N   1.66476723329967      1.20740662503560     -1.92993704342421
  C   3.03317287055310      0.65174122426635     -1.98143996862714
  C   3.63007084639495      0.63606907626235     -0.61124541119704
  C   4.48381527030393      1.61155353801542     -0.16945606393348
  C   4.58370802256665      1.88054025164491      1.21150046582590
  C   5.50256339007107      2.83007747272944      1.70880679207578
  N   6.25030157740447      3.62287413173179      2.09864286596375
  N   3.05733525998188     -0.26243749624012      0.26834227670779
  H   0.67341983348368      3.88524044431834     -0.00808831458720
  H   -0.02581299645897      2.24834951194453     -0.07420951328905
  H   0.87592550981825      3.11816099976874     -2.27393544074639
  H   2.48946140766993      3.12376272939329     -1.56245695243472
  H   1.19807523744436      1.03029145075063     -2.80755753487280
  H   2.93613222017436     -0.36257371262619     -2.37521935755755
  H   3.68345608525831      1.23218910299380     -2.65257639056986
  H   5.01742048125333      2.23431145017937     -0.88139217881555
