22
Coordinates from ORCA-job 18783optt
  Br  2.05895849346592      2.32985854479352      1.44478867195855
  C   2.51533481837988      0.17754366636478      0.24961310967442
  C   2.02736001230439     -1.07459213128292      0.28873334197794
  O   0.73449651535218     -1.34898211004099      0.74439684598026
  C   -0.31413780589995     -1.39329790058296     -0.08253527627958
  O   -0.54795831509655     -0.71965792474670     -1.02321328709318
  O   -1.20333256647513     -2.33724582220159      0.36987581068791
  C   -0.77462592924193     -3.32401981652793      1.24305165167102
  N   -1.40105387462401     -3.58474489098716      2.30514306465003
  N   0.33045244516988     -4.04593424704371      0.84620310651662
  C   1.11307385045322     -3.70475561060153     -0.30028000567437
  N   0.62707071938200     -3.67140275971255     -1.47087931535292
  N   2.44778544405172     -3.46551342393645     -0.05092331388522
  C   2.86511070173503     -2.24883767649124      0.07499147512916
  N   4.23713152686077     -2.01828514109721      0.04234897839052
  C   4.64987235877165     -0.80394836595390     -0.00774852502730
  N   3.85260429149606      0.28929085638392      0.00752185249770
  H   -2.14325878347301     -2.90577284221170      2.44080289608480
  H   0.85705829748394     -4.40102713112446      1.63109511281190
  H   -0.34986429370207     -3.95597607092251     -1.46106450635269
  H   5.71749030250867     -0.60705707392181     -0.05764113520776
  H   4.24943179109731      1.21835787184513      0.04571944684217
