21
Coordinates from ORCA-job 18786optt
  Br  1.27481909161725     -1.53456263508063      2.02701003094059
  C   2.49427351294873     -0.57276403617662      0.90411884383436
  C   2.09395075569691      0.61095356822971      0.36716943155773
  O   0.83370012749008      1.11953253871426      0.61844871076283
  C   0.06467951820272      1.37291350711551     -0.46135581070678
  O   -0.08767235897335      0.65743189170973     -1.39726745577113
  O   -0.57547295259044      2.54438941380787     -0.33441134857658
  C   -0.00211073755550      3.55335342305871      0.50480158251676
  O   1.38098294170084      3.59328487828955      0.49309725793883
  C   2.01817946269725      3.48599242773326     -0.74732944720799
  N   2.82189532696462      2.51779412055740     -1.06044190801763
  C   3.01453354049587      1.33103340395094     -0.48377532794148
  N   4.18058715953791      0.67383575554721     -0.78586744652171
  C   4.43974931868299     -0.45661227977048     -0.18291868540730
  N   3.68232923904155     -1.13537152057657      0.70790333570270
  C   5.71677213285644     -1.06959727649576     -0.49733506101551
  C   6.77442884297967     -1.57355036081350     -0.75250865403504
  H   -0.30070823153557      3.38573943197066      1.53964990033631
  H   -0.44035060965897      4.47490611178481      0.11088886705015
  H   1.95730095365101      4.37591868858681     -1.36265350603888
  H   7.71313296574994     -2.01562105214289     -0.98022330940023
