21
Coordinates from ORCA-job 18784optt
  Br  1.41650599468328      1.14596523404256      2.87548483303667
  C   2.47893942326715      1.00933801473320      1.29625578650348
  C   3.17715141240005      2.07549133345779      0.89643574852453
  O   2.94520651231832      3.34503364295865      1.40010032700239
  C   2.08531328024749      4.13616536245651      0.70557846894089
  O   1.90710202500790      5.26427503091142      1.01367641862935
  O   1.57660905416058      3.56898862890980     -0.42185398292123
  C   0.63634839754591      2.55638197533353     -0.30115654825197
  N   -0.23016905485724      2.64498685812479      0.60552536601225
  N   0.71515870044633      1.70205079160733     -1.38809971956959
  C   0.63974602720161      0.43221327482313     -1.35312253477260
  S   0.81826393530021     -0.70238391449836      0.01892848365579
  C   2.46817724409597     -0.22950088976138      0.55631838134680
  C   3.54597983611949     -0.56351130026869     -0.27347214182806
  C   4.63161399306872      0.27688029076090     -0.62013083044101
  N   5.72238007146772      0.01409210089977     -1.26334709269240
  S   4.45317315089655      2.04076081215050     -0.29521107860960
  H   -0.82780461306389      1.82186066320915      0.60801619979793
  H   0.55671801769450     -0.05973783780428     -2.32238386768648
  H   3.52972849331012     -1.53028966398715     -0.77023618240489
  H   5.74685809868918     -0.98206040805921     -1.47930603427226
