22
Coordinates from ORCA-job 18788optt
  Br  1.23794746189186     -0.33093280418137     -0.08622750306745
  C   3.10466395091451     -0.08383531580555     -0.09304903028647
  C   3.94259069309475     -1.15400512977557      0.01324323997093
  O   3.42015619339841     -2.42385031165229      0.12810019829735
  C   4.22843295315102     -3.50009929830278      0.17140777452269
  O   3.76408009268534     -4.59716463649535      0.23306986910835
  O   5.54824606188831     -3.31709043843491      0.14187821942887
  N   6.19144775273922     -2.04788644303249      0.08891641535343
  C   5.35080207077595     -1.02098769904809      0.00777913556198
  C   5.88543636060954      0.29949326650619     -0.10420128719867
  C   7.37316735764691      0.47115291090556     -0.12347606889697
  O   7.94992090847515      0.35630253096604      1.18485359594657
  C   8.67312085244897     -0.74169776277054      1.46820026180024
  N   9.29369272079028     -0.91065245868703      2.55021413346337
  C   5.05131861488596      1.37144189757686     -0.21152031163391
  C   3.60772602526183      1.27544069153780     -0.21244381919713
  O   2.87209252084301      2.27002685984630     -0.30782338841806
  H   7.62168288137724      1.47237037205900     -0.47371621429131
  H   7.83662140689738     -0.26579210537361     -0.78385210850580
  H   8.68316704932357     -1.49607983798909      0.68451666467607
  H   9.14387975391749     -0.10914364624299      3.16452115856631
  H   5.45580631698323      2.37298935839392     -0.30339093520038
