20
Coordinates from ORCA-job 18792optt
  Br  0.78222392798454      0.13573927702905     -0.66251817707481
  C   2.89826829849848      0.14710327661473      0.35263785189179
  C   3.72421233638598      1.23288826418587      0.23101571685256
  O   3.30126807532257      2.54678320179443      0.36789383185193
  C   4.29052664738883      3.43972691642352      0.23088142436781
  O   4.13859849612260      4.62006305135691      0.31142912878435
  S   5.86098126204141      2.63316846145555     -0.08125651628671
  C   5.08051365713151      1.07927368786811     -0.02315907072328
  C   5.68195967697123     -0.15519634231023     -0.19385573618531
  N   7.04082527350476     -0.18785898253533     -0.45510340080927
  C   7.69424645925450     -1.24541984227110     -0.62179267063054
  O   9.05128234627183     -1.06279114162697     -0.88944142095896
  C   9.83982834518750     -2.13666022803185     -0.98081977411281
  O   9.52306806502448     -3.27855730671960     -0.83097884280904
  C   4.84583042093301     -1.32497044049973     -0.08228527186564
  O   5.22028789170923     -2.49215177701566     -0.19925854005988
  N   3.50464657383101     -1.05114579005949      0.19754241930450
  H   7.35127046998440     -2.27145973277403     -0.59353440015603
  H   10.85814992557363     -1.80512809723729     -1.22023225003223
  H   2.92401185087830     -1.87940645564689      0.24983569865158
