22
Coordinates from ORCA-job 18795optt
  Br  1.87343862430761      0.05243625391840     -3.45075799991085
  C   2.35900991866849      0.60475413408083     -1.65031390559986
  C   3.38709685042983      1.50210691756919     -1.42579643532804
  O   3.44914520485546      2.63689448718255     -2.24332843456836
  C   3.00160190816828      3.79425925380238     -1.73956288849031
  O   3.27937771569252      4.84245836135195     -2.22980996003711
  S   1.99774731447974      3.77626010259457     -0.19526744698423
  C   0.63663811779641      2.70025540686118     -0.51362555032306
  C   0.06899636638262      1.87714357030768      0.37655880217067
  C   0.56869866279165      1.47569671235749      1.72431994846846
  N   -0.16520433994020      1.51076374353634      2.77374817852624
  C   1.99048344075287      1.10427513811781      1.82033778731759
  C   2.65180428517184      0.43191087864221      0.86563103598382
  N   4.05768361832086      0.48658526676700      0.65753218791587
  C   4.31392851033864      1.49804763821234     -0.33476109074889
  O   5.20612110091243      2.31531185281669     -0.15365270149918
  S   1.81176669634332     -0.45664786608835     -0.39709960999124
  H   0.14400662295517      2.85839872051732     -1.46520924537511
  H   -0.89163982393524      1.45156542581128      0.09995427742979
  H   -1.09193929064399      1.86598429007761      2.53578881511050
  H   2.54296923436105      1.52402631912629      2.65530848697532
  H   4.56726926179062      0.76051339243718      1.49100574895799
