20
Coordinates from ORCA-job 187optt
  C   -3.71942115747148      0.71687984227865     -0.00271430794038
  C   -3.18736671368453      1.99655071082019     -0.00017572156088
  C   -1.80705180953507      2.20952598324169      0.00099423253293
  C   -0.98271708618904      1.05948475856628     -0.00052840315078
  C   -1.66340772510616     -0.20101582473800     -0.00311772403044
  N   -2.95312027628632     -0.41800641402085     -0.00424924314057
  C   0.40106593434630      0.78885279044148     -0.00017738768633
  N   -0.70515200012461     -1.19552294218680     -0.00424994111464
  C   0.55717961849116     -0.63515582513733     -0.00242498623416
  C   1.59827166453562      1.54324809413896      0.00177425932931
  C   2.79712515315908      0.82659075480496      0.00144701952731
  C   2.80764529178742     -0.55942565158242     -0.00072017251400
  N   1.67029235312279     -1.32143541234381     -0.00273542503495
  H   -4.79213606478616      0.56407953343146     -0.00362475472024
  H   -3.86710761916374      2.84147326652714      0.00092933211735
  H   -1.38923256923955      3.20803430900054      0.00310201331721
  H   -0.89775392596675     -2.18100921823558     -0.00615978349891
  H   3.74319526865064     -1.10625338946451     -0.00093104240186
  H   3.74505965621075      1.35335416856359      0.00297044333640
  H   1.58763200724964      2.62575046589438      0.00359159286766
