23
Coordinates from ORCA-job 18800optt
  Br  3.16524152441295     -1.83173172056701      1.96660623747844
  C   4.32085866123465     -1.13212691830344      0.64186610962006
  C   5.42498231537974     -0.34401369817300      0.97983035513699
  O   5.76111720891243      0.62725417999449     -0.01454558787292
  C   6.39898469250586      0.00225282109102     -1.03731041522886
  S   5.50152872748092     -1.29263158015016     -1.81382030570973
  C   4.07336491996807     -1.49815218707853     -0.70316472804651
  N   3.01869266353402     -2.07136397927612     -1.17283584427185
  C   7.64884816611117      0.35236275212414     -1.36351568304687
  N   8.54543166314295     -0.60785848723968     -1.89544213260968
  C   8.78901454234233     -1.76638906735094     -1.17207052880303
  O   9.18018974621771     -2.78939347485776     -1.70172853673559
  N   8.53874272706668     -1.67787869123922      0.18308897781506
  C   8.69765065210702     -0.51492569070524      0.99288354218414
  C   7.77039102118362     -0.01493151941836      1.80105523040183
  C   6.39077562492657     -0.60235273781422      1.99638717854788
  O   6.21419251306452     -1.31148392218225      2.99073277194664
  H   3.12470788530900     -2.28799832785860     -2.16091465653491
  H   8.06196203183982      1.23619019016698     -0.89784682776738
  H   8.70286443068393     -0.72177331328511     -2.88495994691628
  H   8.56158588188392     -2.57362681938072      0.64501418348788
  H   9.67312413340034     -0.03831860117638      0.92590666831458
  H   8.04274826729137      0.83389079268017      2.41978393861012
