23
Coordinates from ORCA-job 18804optt
  Br  1.11012613049702     -0.29785159956546     -0.31842822524679
  C   2.98086703291668     -0.10931590598997     -0.19594114597803
  C   3.76583522861307     -1.24939276165418     -0.13520266240096
  O   3.11767781070188     -2.47187592427228     -0.08232730461906
  C   3.75784559644956     -3.65200017676804     -0.12493815949996
  S   5.51269122149286     -3.69551328906042     -0.19613495399419
  N   6.05454377244026     -2.13077311712001      0.00110875659414
  C   5.16242768588214     -1.16022012458908     -0.06192575715343
  N   5.68423043729693      0.12200308766352     -0.03413386522560
  C   4.99731114153311      1.31247608455936     -0.05454693118245
  N   5.55621365739830      2.46815089920802     -0.00361669567484
  C   3.50836808443384      1.21376998324740     -0.15608965933705
  N   2.77266713469754      2.28235589760953     -0.19897433221840
  N   3.03721109283540     -4.69212440883230     -0.11645495017506
  C   3.68468011816900     -5.97408092037091     -0.14944148163429
  C   2.66295376366030     -7.06726662684061      0.04918075268165
  O   2.88880970930317     -8.23635354122110     -0.10906713495005
  H   6.69228687439749      0.15172832071703      0.00920507129083
  H   6.56868404388247      2.38742890536553      0.06059743033455
  H   3.40166805358952      3.08371092582302     -0.14766141808160
  H   4.44076301637541     -6.09061448644150      0.64368661572349
  H   4.20662226314571     -6.16697940690984     -1.09631480599269
  H   1.66751613028816     -6.70526181455763      0.37042085673979
