18
Coordinates from ORCA-job 18808optt
  Br  1.26059880209046      0.24065764435202     -0.37612956258458
  C   3.08349246679376      0.23966160202788      0.08147378931025
  C   3.53635471846856      0.27429757844041      1.37495116069528
  O   2.96522172955525      0.31238469689917      2.60736422903273
  N   3.99303258595123      0.33637261836850      3.60986252197474
  C   5.12948958813786      0.31247620972432      2.95240826870730
  C   6.58910667325174      0.30647594773481      3.02210238761173
  C   7.04856512408269      0.26565397878353      1.71415867864039
  O   8.39572896046520      0.25743272716593      1.75288508980767
  C   8.68458050873366      0.29352500849572      3.08902473751754
  N   7.66946447933425      0.32359467586374      3.87999521302691
  C   5.98944624063646      0.24170707382412      0.72235158869521
  C   4.89777090821281      0.27346357948516      1.56152201263187
  C   5.66979047569337      0.20015147511258     -0.67593715572715
  O   6.43346998880923      0.16731923970785     -1.61946070459400
  C   4.09339934182290      0.19608842668374     -0.99464878172395
  O   3.77521814722674      0.15589755624798     -2.16515024915814
  H   9.73026926073380      0.29283996108253      3.34622677613621
