23
Coordinates from ORCA-job 18802optt
  Br  1.03990209171238     -2.06999285266376     -1.00285460119659
  C   2.17221919597496     -0.57522750016254     -1.00311671143904
  C   1.78154754102841      0.65473134491480     -1.29541181027199
  O   2.87927695406201      1.57774249423872     -1.26789548345816
  C   3.97791092482798      1.02975267730847     -1.83722535882734
  S   4.86388243210452      2.02233905785589     -3.01464733661716
  C   4.51292029985663      1.13737692073341     -4.59413888771226
  N   5.46703107373584      0.99965870172541     -5.42278365229687
  C   3.18400090520900      0.62024522488144     -4.80299389581218
  C   2.12393291398824      1.02051811370122     -4.05863156150066
  N   0.88575009744539      0.50654469216028     -4.00889645784964
  C   -0.06048186326608      0.83353021086008     -2.99920250595540
  N   -1.30326966262131      0.80528514762674     -3.38096839672014
  C   0.45770337706450      1.16114651608257     -1.69152046845092
  N   -0.21017040911479      1.81982121239104     -0.74931889961270
  N   4.36460186715302     -0.16339100291648     -1.63971037903641
  O   3.48717155084392     -0.86227913424872     -0.76272629981580
  H   6.35352347677906      1.32034110080778     -5.04333336397289
  H   3.10494658285330     -0.17294606719271     -5.53588376979997
  H   2.24991924886830      1.86314010758375     -3.39277827270063
  H   0.57397579172776     -0.16335341711844     -4.69644935780141
  H   -1.90191801153531      0.89998182854875     -2.56398430164632
  H   -1.06937637869774      2.19103462288228     -1.15652822750549
