20
Coordinates from ORCA-job 18817optt
  Br  0.96807540951097     -1.67482302494178      0.41352639383957
  C   2.58524936611849     -0.74431857796643      0.17285477874965
  C   2.69384223203861      0.54967313671090      0.52023631171139
  O   1.66654020898552      1.16851974626792      1.16216943083573
  N   0.82689808514093      1.97387892295300      0.31696887384048
  C   1.45810098981952      3.07342072702156     -0.02140933234312
  N   0.77175747415235      4.09920955703439     -0.63599587223786
  C   1.67357808589562      5.05723849820583     -0.69840431951114
  N   2.91610923480993      4.79688855040236     -0.21658875677845
  C   2.82520704915898      3.52891298758210      0.20542378218032
  C   3.99358951641964      2.77011884528137      0.60880453008902
  O   5.05064001221265      3.26721726801174      0.95579759414810
  C   3.93757651893333      1.27511906986171      0.36095651941726
  C   5.08776630183178      0.70173661265232     -0.04451395715421
  C   5.27216691107158     -0.67925960493207     -0.44180585587466
  N   6.35932054283637     -1.23598836466091     -0.81106549329250
  S   3.85128577633933     -1.74063417338104     -0.46779836624196
  H   1.44239554622620      6.02598910710735     -1.12388361747247
  H   5.96981342520770      1.33297859474039     -0.08366741890000
  H   7.11708731329047     -0.55487787795071     -0.79460522500515
