20
Coordinates from ORCA-job 18816optt
  Br  1.14863321890316     -0.00901529868154      0.02677418193473
  C   3.01922034096943     -0.08635441510816      0.07107432314795
  C   3.71594704894483     -1.23299382094454      0.09930668453797
  O   3.06646688076117     -2.42557893822222      0.10949373267209
  N   3.72962626996483     -3.64777527074501      0.11643711856238
  C   5.05258917199840     -3.54468264614224      0.11709761126002
  N   5.84936495617999     -4.63903559181544      0.11804722195682
  C   7.10673822640410     -4.14103238848653      0.11467403300535
  C   8.23361580228886     -5.06751393666428      0.10838967946137
  O   9.40409624595910     -4.75327730692338      0.09866326097340
  C   7.16446856269232     -2.73610339918285      0.11348884071296
  C   5.83517191307148     -2.32945652997584      0.11516009070383
  C   5.16279487254047     -1.09139834411383      0.10976538217542
  N   5.74555037419733      0.08061050324812      0.10750975790561
  C   4.99594092403362      1.22166151449405      0.09784774535407
  N   5.41985727314106      2.41540344022203      0.10930055454270
  O   3.59875482121513      1.12000249108826      0.06876747882478
  H   7.93024096585242     -6.13137322077015      0.11193380735651
  H   8.05041524898443     -2.12290449792526      0.11024924502266
  H   6.43450688189779      2.37381765664884      0.12701924988937
