22
Coordinates from ORCA-job 18829optt
  Br  3.37255909091147     -4.88764533658239      3.88970585918001
  C   2.53642736226981     -3.43593266225318      2.90470578445740
  C   3.35800872696319     -2.27849087282226      2.68142534664366
  O   4.68615539398796     -2.46746308813988      2.39967070507194
  N   4.86150727518633     -3.36973763619669      1.32146865985620
  C   3.77161440644132     -3.84254951402874      0.83765111403714
  C   2.44494527060557     -3.59848056593895      1.43166897771455
  N   1.43796895598725     -3.16506071068944      0.69935448463541
  C   0.17839830808082     -3.10165091969126      1.22404171844447
  N   -0.63448788284582     -2.09857045833375      1.15817032351149
  C   -0.18644458749196     -0.85254208643203      0.72268270205434
  N   -0.63652022025762     -0.21328342330746     -0.27893927001727
  N   0.80757980354486     -0.21024372504722      1.50906714108231
  C   1.56882614902510     -1.01657646900023      2.33410699612754
  N   2.85284536005883     -1.08192225808690      2.26516722486652
  C   -0.33690101504642     -4.31361709134184      1.83983178078451
  C   -0.71377649193979     -5.34231922235816      2.32549057048425
  H   3.90216476007843     -4.46728719376901     -0.03782654991477
  H   -1.33097082227192     -0.79098533437200     -0.74435791994008
  H   1.34956645722304      0.42180444792137      0.93291225093645
  H   0.99661096324852     -1.66505426178017      2.99034615483994
  H   -1.03607726375902     -6.25239161774976      2.76965594514395
