22
Coordinates from ORCA-job 18828optt
  Br  0.18723820121304     -0.44776618260088     -2.95492058900074
  C   2.05374031535258     -0.29565339056586     -2.80912961220518
  C   2.64702540748090      0.87463981886062     -2.51701193754724
  O   3.97679668622747      1.01050122507529     -2.50177439908219
  N   4.80608416018188     -0.06242216444492     -2.91528923124063
  C   4.23853316982997     -1.23646006450004     -2.77475967085062
  C   2.88281905097558     -1.44506324217701     -2.49646436453936
  N   2.48288215087863     -2.55784450148291     -1.81234225523916
  C   1.84153317183062     -2.49826209934734     -0.67563998976932
  C   1.50366419413156     -1.38542057241109      0.15807536402195
  N   1.80425414074832     -0.15393061899015     -0.27083093677080
  C   1.40667468593026      1.01038370852809      0.08248589256021
  C   1.58822625831336      2.17021799108091     -0.80649426988191
  N   1.26906266136238      3.36639772020185     -0.53739828092728
  O   2.05063719831238      2.01149169017962     -2.12254544013746
  C   0.73848271245048     -1.59527012910315      1.34313979621522
  C   0.09417335163646     -1.69835439308907      2.35889291486268
  H   4.92231180217449     -2.07822710584478     -2.82814077037830
  H   1.53346600550320     -3.46453661181265     -0.27741795138528
  H   0.79202645434981      1.21134720888452      0.96687435224349
  H   0.93328456813285      3.40292271889886      0.42191971077517
  H   -0.47491634701627     -1.80169100533991      3.24977166827677
