23
Coordinates from ORCA-job 18822optt
  Br  2.02113351211867     -0.90634799430909     -0.67679827840921
  C   3.52901063344166      0.23024498212265     -0.45003751589259
  C   3.52883300297950      1.34074533918877      0.48351682113530
  O   4.80824749851977      1.58047869349090      1.01275570433013
  N   5.78710946449915      1.74706008087525      0.03778865021073
  C   5.43191982081816      1.48803429529280     -1.16297082772281
  C   4.15603731676822      0.88246888178054     -1.58706840440908
  C   3.42569037670268      1.31143124772016     -2.65318595750598
  C   3.68429640465520      2.50305181192230     -3.43877478658747
  C   2.82887946510987      3.54573116878108     -3.55097979857334
  N   1.63927524029354      3.82090834838455     -2.83542312797551
  C   1.59919517639881      3.85938881638939     -1.37215909943031
  O   1.39958101995757      4.94896725764364     -0.86492933642067
  C   1.82095721502942      2.59708115500440     -0.73825706720995
  C   2.75107890290349      2.47798361276539      0.28214578876268
  C   3.16546487853121      4.56506175719342     -4.51277391908616
  N   3.39574065280809      5.37973262573573     -5.29122394655605
  H   6.19866100913427      1.69245356397913     -1.90336140608312
  H   2.46096782538276      0.84566911168257     -2.81455262504867
  H   4.62335537219546      2.61151476341491     -3.97343479992688
  H   1.25450578547992      4.70653283533283     -3.14215870227518
  H   1.49769131644535      1.73105386120725     -1.28623038437059
  H   3.09236810982719      3.38475378440138      0.77411301904478
