19
Coordinates from ORCA-job 18832optt
  Br  1.12958013167181      0.09515298306105      0.00083862058952
  C   3.00626268590750      0.10208010986997      0.00232735327515
  C   3.72678301928580     -1.09152500680446      0.00266342771299
  O   3.23502311651590     -2.34149642822156      0.00218413726884
  N   4.29514056968050     -3.23073620917497      0.00282524632892
  C   5.38383454192833     -2.51960657605051      0.00366021297493
  C   5.10824278274991     -1.12437248627017      0.00360730727300
  C   5.82614213940283      0.08099841282868      0.00422897848323
  Br  7.71650887169398      0.03746891633861      0.00579139239475
  C   5.15480766172845      1.29002494780443      0.00384899440800
  C   3.71836334078084      1.29039462660796      0.00303584749257
  O   3.05546410426422      2.43629536144761      0.00295350630824
  C   3.67402323098096      3.75735288306502      0.00351729222146
  O   2.87938413577421      4.67721093421994      0.00343451343547
  C   5.09728137960100      3.77829783076245      0.00393550716188
  O   5.81630716559117      4.78737680446255      0.00423593830707
  N   5.75230827241317      2.50992615338557      0.00417394883457
  H   6.34072212471703     -3.01859244881738      0.00425391006474
  H   6.75882072531233      2.57474919148519      0.00448386546466
