17
Coordinates from ORCA-job 1883optt
  C   0.82473156659256     -0.02109681922213     -0.01455352110791
  C   2.21672196677479     -0.05053692706460      0.01365071867284
  C   2.95045428850193      1.26056445255515      0.23401685818419
  C   4.36596682217574      1.25295404623326     -0.34758090735025
  C   5.15710064315765      0.05053987073044      0.17668455192974
  C   4.41175448583844     -1.21682904537097     -0.11943042656646
  C   3.01807179669560     -1.19662789757423     -0.14464522341713
  H   0.28244266241151      0.91222780320143      0.08185588187619
  H   0.24229756253206     -0.93052367707283     -0.11379112094921
  H   2.36897579576420      2.07613386257140     -0.21133209441008
  H   3.00881111563678      1.47705892772467      1.30946448379605
  H   4.87934424595688      2.19203152622715     -0.11175689062367
  H   4.30089250867593      1.17424190803954     -1.43798062696637
  H   5.30900699810039      0.20740491895888      1.26162255849149
  H   6.15810945418204      0.03648499882180     -0.26882757841797
  H   4.95704366751909     -2.14815620133227     -0.21209920803267
  H   2.49527441948438     -2.13387174742669     -0.32929745510878
