22
Coordinates from ORCA-job 18836optt
  Br  0.86909768027540      0.46167698474537     -0.10669600058850
  C   2.73499809132365      0.19101672905306     -0.05538979877346
  C   3.61751056087803      1.21720808564660     -0.04955923215559
  O   3.30030615505392      2.53363089086875     -0.07287123369500
  N   4.49028732796884      3.29024718845892     -0.06187161675526
  C   5.46461780746359      2.41346721748794     -0.03273276205482
  C   5.03073842505055      1.07087074713531     -0.02280196639607
  C   5.70152020275015     -0.15845028159881     -0.00390586968619
  C   5.06209985900016     -1.41337943240861     -0.00317353225035
  S   3.24562601322509     -1.48259437124806     -0.01224800607601
  N   5.70059580243270     -2.54217169378345      0.00804676858850
  C   4.96786566879976     -3.77413814793697      0.01307227047527
  C   5.96406593210213     -4.93557157499155     -0.03505753606811
  C   5.31288456556608     -6.24233678792953     -0.02247472423751
  C   4.74755024904133     -7.30050128143946     -0.01119722933794
  H   6.48163747357437      2.77836341994129     -0.02061158045620
  H   6.78346836870646     -0.19306091617803      0.00751246238404
  H   4.28524493716401     -3.86174659840684     -0.84643051996289
  H   4.34162637653605     -3.88477659420222      0.91193891199325
  H   6.64102416930946     -4.85013318845595      0.81738113173837
  H   6.57407215591152     -4.83457339498716     -0.93496380800607
  H   4.24016217786672     -8.23404699977056     -0.00096612867945
