20
Coordinates from ORCA-job 18831optt
  Br  1.34910866105205     -0.29303732747002     -0.16352282329969
  C   3.21436393487936     -0.20271689262192      0.00632727056094
  C   3.86767548034930      0.99390318537068     -0.04450400646770
  O   3.34227502420426      2.22944285217500     -0.21275089540369
  N   4.38221951264559      3.15569632294206     -0.20750226703912
  C   5.48792951564711      2.50117916858065     -0.03631107730639
  C   5.26236585776210      1.10147142112505      0.08000918697831
  C   6.06387445403358     -0.01931044901109      0.28285582012317
  O   7.39495357746682      0.13985452702673      0.50234447209575
  C   8.15249045989910     -0.45082748435158     -0.58898958358808
  O   8.65244027352898      0.31750660661297     -1.36532021096310
  N   8.27030340819536     -1.77942952846657     -0.52028812385344
  C   7.42436757739335     -2.56240172035145      0.13298364766269
  N   6.15686402920316     -2.43792825581824      0.47287567564378
  C   5.47398437208722     -1.27916188172400      0.30389572693631
  C   3.99630433740400     -1.40476224771623      0.19051816348637
  N   3.41004749234003     -2.56176922600037      0.25093533990130
  H   6.42821656538268      3.02909530642349     -0.00925641375653
  H   7.82865923091488     -3.55145939155521      0.34836244984091
  H   4.14455623561101     -3.26034498516994      0.39233764844821
