26
Coordinates from ORCA-job 18838opt
  Br  1.13902564418418      1.56828800447621      0.12104126950294
  C   2.83912111367252      0.75460536616998      0.18379738420153
  C   3.95540516869330      1.39646552636964     -0.22100910626754
  O   4.01492953735804      2.65794029348667     -0.71760895953416
  N   5.35682705664120      2.97740662880288     -0.99911423383585
  C   6.05085041216939      1.91003108340233     -0.67358699876885
  C   5.26801432318387      0.84770359297647     -0.17451603039280
  C   5.57879453183690     -0.44391386257896      0.27288390893309
  N   6.93860511859757     -0.88481541223877      0.30101569381064
  C   7.64969596362273     -0.49617987056741      1.51662769938345
  C   9.09790118419197     -0.89094440153897      1.43686251840878
  C   10.05121835229961      0.02182255516810      0.72333829091589
  C   10.11704655300849     -0.12353345833862      2.21756102211124
  C   4.60625539221594     -1.36186647027503      0.76103484548394
  N   4.78663693477595     -2.56115498659773      1.20727682879120
  S   2.87199524382545     -0.87828765083228      0.82124355036093
  H   7.12338211832007      1.94062404947272     -0.80857240025171
  H   7.44225283726485     -0.54095301646215     -0.51018245407421
  H   7.16035683794281     -0.99557189653559      2.35728663532468
  H   7.58315727566938      0.58789098870174      1.70317012125026
  H   9.27261456639146     -1.95310155838808      1.31648404216113
  H   9.64850335454280      0.94754233743887      0.33141386870278
  H   10.84523651316472     -0.41424744523282      0.13369767747205
  H   9.76392013878572      0.70576241901135      2.81593900475214
  H   10.95481566102829     -0.66109786440840      2.63910728743279
  H   5.77743816661214     -2.78141495148215      1.10680853412562
