21
Coordinates from ORCA-job 18833optt
  Br  1.11218770619400     -0.09945997479022     -0.07351770388298
  C   2.99662007324547      0.04682947245557     -0.06743875489892
  C   3.75194368900601     -1.11162784839879     -0.06472442799557
  O   3.28732917398325     -2.37099064329350     -0.06452084195163
  N   4.37090532506185     -3.25395448884023     -0.06115899328386
  C   5.44381006241610     -2.51251375652199     -0.05967402839439
  C   5.14790561870776     -1.12746490273482     -0.06173069826399
  C   5.86295680051646      0.08543596177942     -0.06130304418142
  C   7.27084713280847      0.10652691326088     -0.05940140798847
  N   8.42695146169131      0.14632731624717     -0.05684930022888
  C   5.11345123563255      1.31440743632533     -0.06274831180397
  C   5.73451663271392      2.53778259924166     -0.06141614180400
  N   5.02672271611465      3.69796606422607     -0.06253924954929
  C   3.63134247737974      3.78426680750886     -0.06486243036885
  O   3.11504213180638      4.90441277793129     -0.06510755138610
  C   2.97363701767173      2.52371147755758     -0.06645775036377
  C   3.64704864058465      1.30761530215925     -0.06566721692439
  H   6.41105514507455     -2.99245586312245     -0.05692600372862
  H   6.81261687013699      2.62515674533258     -0.05932402728518
  H   5.50123201872754      4.58714001769201     -0.06137418967438
  H   1.89487807052658      2.55088858598432     -0.06825792604135
