21
Coordinates from ORCA-job 18845optt
  Br  1.90252310602535     -1.14708427576359      0.16280007681946
  C   3.50727105351199     -0.18024221630386      0.02859528266694
  C   3.51469105335895      1.18165423424900      0.00316864424805
  O   2.31144877574312      1.79178181806142      0.04779403214770
  N   2.17433427593566      3.18673978225449      0.02380190530669
  C   3.27183064096735      3.85435459458138     -0.02587048523131
  C   4.60321739272708      3.34699695589585     -0.06244490003711
  C   4.73079999687749      1.93508032975904     -0.05775392620044
  C   5.95715167136953      1.21863034975361     -0.09451520600273
  O   5.88465777356644     -0.15002870126156     -0.10964446758180
  C   4.73986809841572     -0.91034283650172     -0.05596267915710
  N   4.84328744708275     -2.17621194512523     -0.08709650913439
  N   7.19082893052638      1.60091205520769     -0.11960602448745
  C   7.65888498382070      2.89697637343104     -0.10413472903216
  N   8.92239836718403      3.12672826167621     -0.08745459182649
  C   6.83233037952153      4.12901287270296     -0.11185106546277
  N   5.55630533047858      4.30901439759885     -0.09388139979384
  H   3.14228135250167      4.93013039748415     -0.03949169662368
  H   5.82749969807242     -2.42594336345615     -0.15320770750064
  H   9.39788621559463      2.22386910170380     -0.08484927866163
  H   7.44750345671855      5.02397181405258     -0.12739527445529
