17
Coordinates from ORCA-job 18840optt
  Br  1.01786061069755      0.27569661148072     -0.05954859062280
  C   2.89029273463143      0.02857286532181     -0.06523782420393
  C   3.73351321857728      1.13153251927768     -0.06578578619921
  O   3.27750614234244      2.39065402721172     -0.06316159885974
  N   4.35726831311728      3.28071118547333     -0.06428768735337
  C   5.42752142515919      2.54618734544643     -0.06743469303279
  C   5.13401130057125      1.15239525549625     -0.06860291889118
  C   5.93625374115457     -0.00137106622555     -0.07115346991038
  S   5.17467962011935     -1.57081698372448     -0.07306355433325
  C   3.36869634520491     -1.30294935417283     -0.06881782074481
  O   2.72536109183468     -2.33441751600103     -0.06943911055633
  C   7.34340303574455      0.04687265836323     -0.07201368188203
  N   8.10905838033442      1.12838373437439     -0.07137169472981
  O   9.38274670804006      0.62678314023144     -0.07230396738480
  N   9.32990602022489     -0.73646237275291     -0.07352391920450
  N   8.14696264422529     -1.09939008589337     -0.07339880504188
  H   6.39895866802082      3.01461803609317     -0.06885487704919
