22
Coordinates from ORCA-job 18843optt
  Br  1.25731295861553      0.02999763570391     -0.29921688493075
  C   3.13701622138575      0.06930614534978     -0.12848932772876
  C   3.79449054801372      1.28998549036720     -0.09386690829209
  O   3.18783363502290      2.48622330719416     -0.16147702597913
  N   4.15211065788349      3.49784430860045     -0.10859560788137
  C   5.30207796179334      2.89555560867754     -0.01259755409135
  C   5.18220242002766      1.47774480583792      0.00630784135024
  N   6.13672530817886      0.54332340730011      0.08785094423832
  S   5.63567497219113     -1.03429494021975      0.14987449302615
  C   3.85031689984008     -1.15189383725022     -0.04206208629224
  N   3.25203634498472     -2.30129817424063     -0.04059947633082
  C   3.86163563530973     -3.52093027040299     -0.02075042809747
  C   3.38672900894833     -4.66224747767434      0.52498694495608
  N   4.25828169789382     -5.70810890799299      0.16142088517829
  C   5.33741658246807     -5.20811425036681     -0.54035749650256
  N   6.40427923558528     -5.78379334481504     -0.97613722169409
  N   5.04473350094250     -3.87842372756967     -0.69926852171895
  H   6.20540401904512      3.48423556475518      0.04087138431435
  H   2.46421868211765     -4.82504985296688      1.04916290899089
  H   4.33226482321935     -6.57532761112987      0.66011208156561
  H   6.38416231385958     -6.77449743590782     -0.75801736107305
  H   5.67607657267328     -3.24223644324917     -1.15515158300729
