23
Coordinates from ORCA-job 18849optt
  Br  1.12293615984014     -0.06039120317218      0.17384917394924
  C   2.98029628465456      0.17902729508018      0.11610292988951
  C   3.61993865650372      1.36134996214647      0.11686345171118
  O   3.16802802262526      2.63149333197876      0.15755283954906
  N   4.28885239171113      3.49042799454679      0.13850437288890
  C   5.35417044568894      2.70799098829232      0.08078736484972
  C   6.71991012484550      3.30735897819685      0.08980339316805
  C   7.77336423582927      2.47617115029484     -0.64301704295011
  O   8.71582991382800      3.46104188311583     -1.10165753711495
  C   8.09665839117920      4.67152916726747     -1.17098384901565
  N   8.61658839254759      5.73521582281163     -1.62205213004575
  N   6.83029761234780      4.53354409106778     -0.67922471218884
  C   5.03432044525528      1.34070425038366      0.06988406384524
  N   5.78323252626251      0.22934356292191      0.02983934475231
  C   5.11553220181424     -0.94990699956372      0.02412431256982
  N   5.60633287179349     -2.12755161301055     -0.02002502331261
  O   3.69701753677014     -0.97017625983100      0.07120955972047
  H   7.03539445984476      3.47156856898280      1.12960584724177
  H   7.33484247170056      1.96205182164287     -1.49844091155667
  H   8.28502786865775      1.75844419404733     -0.01067205792551
  H   9.54843472321497      5.53364178539996     -1.97050465459400
  H   6.28700484250512      5.35055890890688     -0.45930315416769
  H   6.61598942057991     -2.02243768150690     -0.05124558126350
