22
Coordinates from ORCA-job 18851optt
  Br  1.37037573077518      0.43447453726742     -0.34192914695358
  C   3.19939400264765      0.04712803123416     -0.16597301538536
  C   3.61459199861266     -1.23965351675026     -0.11576382847544
  O   2.73326364790073     -2.22652847901240     -0.25347038542954
  N   2.93122227867838     -3.44703201063278      0.47984859481063
  C   4.19895293459987     -3.75989449336696      0.51948920851453
  C   5.29689430983336     -2.96978457083400      0.13987019880141
  N   6.44287666197586     -3.57260287885936     -0.11391350581101
  C   7.69334806865189     -3.08253665004764     -0.24153739174808
  N   8.68836497557120     -3.78278496366931     -0.69061689914480
  C   8.06208280975812     -1.72874000630286      0.21284969815867
  C   7.27249002971094     -0.67960879549508      0.41389984439573
  C   5.83404238181930     -0.49802897968667      0.16710192238867
  N   5.47352189422677      0.74123101061336      0.11810611915588
  C   4.15483523515298      1.13302388069030     -0.11250522270347
  N   3.81961538649785      2.36144067108817     -0.23837308949971
  N   4.96736562326339     -1.55872341700282      0.00621950301690
  H   4.41232143774120     -4.75865325931956      0.87982152258712
  H   8.32353255181400     -4.69523164793259     -0.96540644245762
  H   9.12673859610415     -1.60445804387054      0.37056676290272
  H   7.71669473364448      0.25854975140259      0.71828151729239
  H   4.66447471101993      2.92241383048687     -0.14456596441604
