22
Coordinates from ORCA-job 18850optt
  Br  1.61462069767704      0.37338869946276      0.02519647300616
  C   3.41562414443713     -0.17318521370719     -0.03376276434862
  C   3.80126894137044     -1.43862168719110      0.19735200657971
  O   2.83303105155240     -2.33630126036702      0.54989936135362
  N   3.08472429629856     -3.70659828780483      0.45546323285111
  C   4.30566376995007     -4.02419597951222      0.25575276121706
  C   5.47120800714175     -3.17605896848560      0.11713889456916
  N   6.58531679141881     -3.87792864430590     -0.13437545519795
  C   7.80834699011015     -3.34981340129203     -0.28610486596195
  C   8.29942010076030     -2.09103329245707     -0.09590050929092
  C   7.59195104747032     -0.90154031035192      0.36746387956382
  N   8.18199838646789      0.02843186884900      1.02266085105811
  C   6.14444334735732     -0.72232082549738      0.08080422530706
  C   5.71641257342094      0.62966131315988     -0.25606031943246
  O   6.41711693663958      1.57711253691873     -0.57390892606419
  N   4.33314023161914      0.81689675444708     -0.27286567116997
  C   5.21890334114566     -1.77254052401607      0.14399364047725
  H   4.48172967404476     -5.09175523513820      0.18540029920425
  H   8.55058489007647     -4.09727494825659     -0.56372097605802
  H   9.37322341426197     -1.96906209605811     -0.19586860393659
  H   9.16323792641011     -0.22383540047124      1.14849658057680
  H   4.02703344036906      1.73357490207506     -0.55605411430345
