22
Coordinates from ORCA-job 18861optt
  Br  1.18243543353327     -1.23403086599988      1.02851102987512
  C   2.83016394092382     -1.40843896798721      0.09879738369658
  C   2.82377039130557     -1.54432735832215     -1.30101984564711
  O   3.98031345204315     -1.29995696599758     -1.95599584229794
  N   5.21384868299543     -1.68748805973410     -1.34818819730836
  C   5.18340379476790     -1.85144311245904     -0.08528218632701
  C   6.39194412067615     -2.50106595680163      0.53083184603935
  C   6.15963482279390     -3.98735517192174      0.89037987048006
  N   5.74784579810241     -4.84955114619850     -0.23898721674499
  C   4.36579114052313     -4.81078584095283     -0.46927794449386
  N   3.51183874236607     -5.30578382420048      0.38653441465939
  S   2.02299750198476     -4.67425671442440      0.01655094278201
  C   2.67140013449369     -3.78402219449625     -1.32391493819548
  O   2.08452466385396     -2.70711631364015     -1.86347611990215
  N   3.91931658710044     -4.06757912461852     -1.52072929276712
  C   4.02569787590414     -1.51262626016858      0.81897485871143
  O   4.22618984391251     -1.41548358303353      2.03966348643134
  H   6.64697273569265     -1.97793066500218      1.45416559432086
  H   7.22367772938046     -2.42211925485745     -0.17240591841002
  H   5.39209915664426     -4.06733323403369      1.65899928519119
  H   7.08786858786183     -4.38453193917984      1.30560003979854
  H   6.20226486314041     -4.53177344597024     -1.08873124989183
