26
Coordinates from ORCA-job 18866optt
  Br  0.57684142244273      1.32191970085639     -1.14560537369474
  C   2.17821599932679      2.24270459258482     -1.53966323171698
  C   3.25439629611604      2.14347542974431     -0.72057084914930
  O   3.46629529709434      1.44627895642026      0.42441550256751
  N   4.81090537108140      1.71027533624246      0.84521829463577
  C   5.30714419698436      2.50886010910198     -0.04767160736678
  C   6.72903268210715      2.99102727500226      0.04733436135558
  N   6.90040499511182      4.42999221244761      0.11347789824759
  C   6.17802188401442      5.05492208720311      1.20388241753086
  C   6.45825869592468      6.55824812994525      1.18274780950325
  C   5.81924156877840      7.26777932654704      2.28681682304917
  C   5.28634701849809      7.82929397063397      3.20261848238507
  N   4.41967523398469      2.82641985535994     -1.02253411994806
  C   4.53303868444531      3.64113789306219     -2.25172379658851
  O   5.63505507678136      4.18078205845450     -2.42094828115374
  N   3.46352219558523      3.69443178777416     -3.00329147149893
  C   2.30256131184319      3.04025449578131     -2.69174665671867
  H   7.27062426885269      2.63128690090668     -0.82712525034639
  H   7.14998419877200      2.52298166421790      0.93970128077182
  H   6.57548833092708      4.79162671825033     -0.78410551299246
  H   6.52659468581739      4.63343097591314      2.15090724051624
  H   5.09153806607253      4.89164451953717      1.16221946959299
  H   6.10429171952747      6.97287452360771      0.23500037680081
  H   7.53813606055313      6.71592551198263      1.21775285594297
  H   4.80800498547830      8.32644126842636      4.01091478543833
  H   1.46537975387927      3.15398469999643     -3.36502144716342
