23
Coordinates from ORCA-job 18868optt
  Br  1.08979016926107     -0.08010823055616      0.09941179301382
  C   2.97079954017362     -0.12637531934276     -0.11346285558364
  C   3.69135825274925     -1.21645434853589      0.20876862694049
  O   2.98263138076288     -2.29272276604523      0.67476806661628
  N   3.54071664827002     -3.57029696123903      0.78299190023210
  C   4.81428827618293     -3.63643060881179      0.51573434737450
  C   5.67347466741280     -2.56691588181940      0.22170023754452
  N   7.03099282643949     -2.85044865248804     -0.03227309467328
  C   7.60892026428984     -2.32206868129435     -1.24331141746070
  C   8.65159163521336     -3.22944739784113     -1.80869882706494
  O   8.92681927949463     -4.31807097628833     -1.37613293985994
  C   5.13812476007559     -1.26575350599004      0.15482779426832
  C   5.95169700829081     -0.07559219861097      0.16126444442670
  N   7.17989447163085      0.02354760578424      0.58697966360760
  C   5.41028432137652      1.19207806022849     -0.42871393168171
  O   6.08925460620573      2.12930627088849     -0.76400616465617
  S   3.65390914405074      1.35820322374881     -0.70526147252624
  H   5.20712472673690     -4.64820929384030      0.55967766765620
  H   7.24177227191636     -3.83647372655391      0.05705818014462
  H   8.06335902572663     -1.33386665446646     -1.08497172131717
  H   6.85752106192282     -2.16714736325416     -2.03513798369183
  H   9.18028167417155     -2.82654593143616     -2.69360804675897
  H   7.45839398764553     -0.86320666223587      1.00439573344945
