23
Coordinates from ORCA-job 18867optt
  Br  1.15678712273395     -0.30362469380827      0.34002566888258
  C   3.01392888529359     -0.15612221333195      0.12479810019797
  C   3.80083699896304     -1.27084893098276      0.05212028936664
  O   3.20581894282027     -2.44209907349046      0.17771666795421
  N   3.79330760848379     -3.66710930208312     -0.28396040571538
  C   5.12035728409153     -3.59217122235698     -0.29583556307256
  C   5.91251610875809     -2.45143563314955     -0.12068421501163
  N   7.21555323310881     -2.38700102826720      0.00762102867392
  C   7.88583482978977     -3.65777797283698     -0.02533310016699
  C   9.33430444964586     -3.50922465176563      0.15169855197002
  C   10.52146170469002     -3.42003257593909      0.29105672934742
  N   5.17348841530010     -1.20406518431022     -0.09799612640879
  C   5.80629183547603      0.04809722351547     -0.28598130666482
  N   7.01846266391436      0.28312567597451     -0.55562280177990
  N   4.95347368246570      1.13514241326097     -0.13908245535633
  C   3.58766791862652      1.16090427590211      0.04252257126739
  O   2.99170496962638      2.22151199736718      0.10632706225329
  H   5.59241569761890     -4.54532355594493     -0.48623443663141
  H   7.72378461957755     -4.18633548127484     -0.97943129961267
  H   7.51358778396337     -4.33914290950365      0.75758290594345
  H   11.57212688233018     -3.31996403698487      0.41347105107971
  H   7.54923207658356     -0.58595001182881     -0.55627958709971
  H   5.41205628613855      2.02744689183910     -0.24349932941644
