23
Coordinates from ORCA-job 18860optt
  Br  1.03058568435134      0.29040155591702     -0.26057294808127
  C   2.90023237604081      0.07629348773304     -0.09531816021153
  C   3.70883242382313      1.19787724762614     -0.15546919726731
  O   3.23231348760187      2.44961040255398     -0.30496255479192
  N   4.29108013876131      3.34963786745260     -0.38601202201585
  C   5.37720081590748      2.63562483297283     -0.27475114728746
  C   6.73168466463717      3.27674686335959     -0.31098382908255
  C   6.70663422593376      4.72354820752471     -0.52278524711333
  N   6.76224833388423      5.85496072419663     -0.69340666091352
  C   5.11433445600794      1.24917312551598     -0.11719683073530
  C   5.91996544532067      0.11562013128164      0.02616475533018
  N   7.32225655230192      0.12405043551578     -0.09329866213764
  C   8.17708552901455      0.44467627269152      0.93444333776548
  N   7.89369060933850      0.89254254152366      2.08739677843477
  S   5.18641198441368     -1.45302981355440      0.29226354713369
  C   3.40408972573252     -1.24812900844017      0.05273465994136
  N   2.68273323710488     -2.30878126719707      0.06976160767183
  H   7.32751378311100      2.82986360594840     -1.10939470779493
  H   7.26456667531661      3.07413291349366      0.62265043478186
  H   7.73914795825045     -0.33399339857133     -0.89311388836894
  H   9.22502530502423      0.31014379915457      0.66132656727236
  H   6.87909196959748      0.95247317738472      2.20249163972751
  H   3.24927461852432     -3.14444370408352      0.18703252774253
