21
Coordinates from ORCA-job 18869optt
  Br  1.04349137296661     -0.63793148085373     -0.55949016052630
  C   2.87365729407243     -0.33440178591052     -0.26823862387019
  C   3.69455057471396     -1.36635051185318      0.05913282881248
  O   3.40658179204220     -2.64199107082915      0.23883979843186
  N   4.62166822684213     -3.36523185153647      0.55859144665194
  C   5.59638573215356     -2.40180172079278      0.70450134712275
  C   6.90739657501051     -2.83882561914802      0.10072149271348
  N   6.89429303916091     -2.96905004891295     -1.36680787602492
  C   7.06011632803861     -1.92365841728167     -2.21816723792130
  O   7.50215351237315     -0.83974399413706     -1.92393300196813
  C   8.06774059022895     -2.06566419201215      0.57159434891506
  N   8.97513686354308     -1.52550389888752      1.01552995396188
  N   5.02103696257009     -1.15588146180967      0.27735254016333
  C   5.50563271994383      0.11140024252542      0.20474023344518
  N   4.79402564399804      1.13855786028826     -0.09676059227520
  C   3.41859480793127      1.01116794105654     -0.36776120152296
  O   2.74548961581202      1.98475776530416     -0.65573421129897
  H   7.05541316748055     -3.84831405854264      0.48940986598686
  H   6.28209235544643     -3.70740390325593     -1.68241664001967
  H   6.77477652984996     -2.18420891941488     -3.25177411649933
  H   6.56676629582150      0.21407912600398      0.40566980572216
