21
Coordinates from ORCA-job 18864optt
  Br  0.93141358795439     -0.41535855469241      0.32704446742603
  C   2.77509004227044     -0.08102957349969      0.05239975570372
  C   3.67390423762835     -1.10612336664383      0.23153749151221
  O   3.09668764156227     -2.29876023890022      0.56703078248090
  N   3.81305137858435     -3.45100189261853      0.73241924876545
  C   5.06343768961060     -3.39849211593041      0.50499615908125
  C   5.83712294127040     -2.22532734430464      0.11207203385217
  N   7.09091993087276     -2.31247193847185     -0.20758563629689
  C   5.09135276344411     -0.99915618952020      0.09884983914945
  C   5.70550536981407      0.23623524409211     -0.16030838807692
  S   4.80900090877180      1.63973290111567     -0.68200759077559
  C   3.10559057686239      1.25330177191257     -0.37392101895544
  N   2.22518735062076      2.16317335061171     -0.56138022328882
  C   7.11097829375730      0.50918270485992     -0.08115713303798
  O   7.64384739300558      1.48888228216644     -0.60774596551724
  C   8.03395155943772     -0.27134935072804      0.84240143180796
  O   7.81691514513421     -0.42328274641714      2.01470638418803
  H   5.57750377183769     -4.34682057589175      0.62891003541857
  H   7.42018498266739     -3.27113571603352     -0.11833039441429
  H   2.65995872052788      3.03856396842111     -0.84632313374244
  H   9.01139571436547     -0.49876261952728      0.38639185471987
