21
Coordinates from ORCA-job 18879optt
  Br  1.20170521922384      0.14728319637315     -0.17403600547564
  C   3.07370958250101      0.08042783556656     -0.06393987212104
  C   3.85371439271662      1.20634426946639     -0.20594669031891
  O   3.42192520903084      2.45260359593061     -0.42003632347531
  N   4.53318161492099      3.30354511335960     -0.50919624417275
  C   5.58955767892676      2.56197883659658     -0.35026187016341
  C   6.94831682746042      3.19083266804526     -0.40974536386970
  O   6.83718718017988      4.60691620701340     -0.58791055076649
  C   6.61705674730735      5.03718652565264     -1.82538842194353
  O   6.61821725032387      4.37676983046282     -2.82176169122685
  C   5.24968333511419      1.19326789724084     -0.14274448760482
  C   5.89661948979633     -0.03079088626248      0.08788899151270
  O   5.11018333297889     -1.14371635611269      0.21878952412490
  C   3.71903610326423     -1.17402471863398      0.16289501097057
  O   3.19793720047114     -2.25297678529135      0.31074799760646
  C   7.28380348505407     -0.25882541714522      0.20692440929947
  O   8.15046663771671      0.62890859965643      0.11879038189022
  H   7.53422725269795      2.74650862403546     -1.21034450934588
  H   7.48023629144673      3.03932876949892      0.52388414184694
  H   6.45225808658070      6.12219742549581     -1.80496428135292
  H   7.55897708228745     -1.30976523094878      0.39135585458600
