20
Coordinates from ORCA-job 18875optt
  Br  1.05546650915402      0.84688098679424     -0.20613937492272
  C   2.85558014966732      0.37548385588661      0.05810255997601
  C   3.31796010095046     -0.88382261853331     -0.06608826964561
  O   2.47528389864887     -1.87323459732176     -0.48926782775594
  N   2.49975056823560     -3.11484468936941      0.18183743405596
  C   3.59392477637924     -3.74606975795459      0.30293434542363
  C   5.05925497327909     -3.54974539359889     -0.07340832084413
  O   5.67976210978604     -4.57855011432443     -0.28394220025680
  C   5.55548626720461     -2.20965649787604     -0.03560521431757
  C   4.71906007735215     -1.08474460061492      0.08564753822907
  C   5.55929462482834      0.04009996065904      0.18254657645934
  C   5.02226985819748      1.31237867721019      0.26104248590506
  O   3.63623836674175      1.45851478469718      0.30495626389982
  C   6.88374271905789     -0.51390497487922      0.10943637500353
  N   6.86312975528605     -1.84568581495082     -0.02158589150555
  C   8.08378317382741      0.24388667199592      0.16270169213472
  C   9.07053327150708      0.93291226010425      0.20557441455152
  H   3.44061165855600     -4.71877819547339      0.76731621614917
  H   5.53439554107250      2.25517847608177      0.33318654225577
  H   9.95047160026799      1.52670158146763      0.23975465520472
