21
Coordinates from ORCA-job 18871optt
  Br  0.84225286441177     -1.61910281965010     -0.37806356082245
  C   2.58348699428680     -0.86832316909366     -0.22521068724411
  C   2.67571914799067      0.48582619203123      0.04667223298993
  O   1.60703478719167      1.19403278384623      0.42084825701556
  N   1.09414591996838      2.23667403692782     -0.42558683742991
  C   1.95324088122026      3.20178844489149     -0.52692432074906
  C   3.30348743172633      3.29128753436413     -0.09387227721195
  N   4.19437283747038      2.38220075286061      0.23856985823825
  N   3.93598245045001      1.07972220001471      0.14168907529938
  C   5.03656797006514      0.23543735251287      0.10553435378520
  N   6.28875900469723      0.62088740879650      0.25142947579282
  C   7.03948127361572     -0.53480327255179      0.08962283911562
  N   8.30220096896259     -0.67245018344477      0.15771428256523
  C   6.13417558426083     -1.72847829948768     -0.20278330421568
  N   6.48519282937914     -2.92568136337458     -0.41564894972427
  C   4.79455611478614     -1.14054939437836     -0.16684322229393
  N   3.61175932253558     -1.69089801289390     -0.35789988065950
  H   1.53695824462318      4.08819794555788     -0.99880099038186
  H   3.71747221535068      4.29259326392657     -0.06713022587585
  H   8.72162106464948      0.23414095743539      0.36392937674781
  H   7.50853209235796     -2.95450235829059     -0.35924549494126
