23
Coordinates from ORCA-job 18884optt
  Br  4.79228417109202     -3.40404552297637     -2.16408019549942
  C   5.36390747777611     -1.61591404608210     -2.04980211460643
  C   5.80051298117098     -0.87654600845752     -3.09168956592140
  O   6.02542556549356      0.46294577117151     -2.72289996479530
  N   7.07134443778426      0.50828203270495     -1.73076397414391
  C   6.84292955655129     -0.29180039089497     -0.77755704436660
  N   5.62835992171026     -1.05850676734839     -0.79177202416870
  C   4.89196545425948     -1.29058998130259      0.34217546371140
  O   5.14427981407628     -0.85081197429671      1.43291646538727
  C   8.02457658471810     -0.89956081142314      0.01761018237459
  O   8.37018469054911     -0.50748861933877      1.11414598992497
  C   8.48567462388617     -2.07613262847495     -0.69148081767330
  C   8.19058327382518     -2.26757194794125     -2.02833630717349
  C   8.13395150588748     -3.39232819721575     -2.85484728592625
  C   7.49071010551327     -3.37311974519013     -4.09727083643599
  N   6.84757331261860     -2.41049243894782     -4.77362515829855
  C   6.28264141388650     -1.27939172758400     -4.38593500392935
  H   4.02029622298974     -1.92607814139064      0.12942043550450
  H   8.94412341979193     -2.84357138643821     -0.07669707401208
  H   7.91650468546178     -1.37317110933417     -2.55896857246181
  H   8.53761449900783     -4.34646348626800     -2.53105246623022
  H   7.57922967952264     -4.29204718605400     -4.67587382387355
  H   6.13732660242706     -0.53559568691691     -5.16661630738625
