22
Coordinates from ORCA-job 18880optt
  Br  1.16553032039267     -0.35346602847928      0.63454369575562
  C   3.02189129377700     -0.18420887484276      0.27825089395073
  C   3.84588459543985     -1.28621682318097      0.30754126245570
  O   3.25640857610342     -2.47795707101072      0.61481807315955
  N   3.95259095642515     -3.67565872384155      0.57791737203617
  C   5.23422092003073     -3.60018101229786      0.34714366719272
  C   5.94517128735834     -4.93717583739159      0.34319827151184
  O   5.03170703166183     -6.02321801359067      0.46210160966589
  C   4.61361902275114     -6.32386546816645      1.68794098658197
  O   5.04317654086609     -5.88652941656144      2.71341841817213
  C   5.93775360806421     -2.41023767064404      0.10588662473559
  Br  7.80769718783855     -2.55225095835360     -0.14532234999658
  C   5.23558363959716     -1.18342983856701      0.04842806535712
  C   5.82174805405592      0.12478969705258     -0.26396620857868
  O   7.03056852504655      0.28346307163534     -0.51029927575930
  C   4.89387033385060      1.22955591193648     -0.26960929239611
  C   3.56332582764591      1.07824641268451     -0.01047800144361
  H   6.67757532663450     -4.97363271164696      1.14914222820256
  H   6.45747596922569     -5.08280533197586     -0.60517427214936
  H   3.81987446476520     -7.07796430898386      1.61915313949270
  H   5.31041714391744      2.20318462251714     -0.49299383701377
  H   2.89990937455199      1.93455837370861     -0.02264107093292
