23
Coordinates from ORCA-job 18885optt
  Br  1.95940720635755     -2.17205642400159     -1.35410829274119
  C   3.47838570906433     -1.30659416017175     -0.68802774068916
  C   3.75522522155715     -1.00783559182144      0.57983484081194
  O   4.88144284494590     -0.20753816059720      0.73659190777182
  N   6.03239654303084     -0.81790737364309      0.11120711998400
  C   5.75123431119357     -1.18801455466192     -1.07476684939150
  N   4.47493091013044     -0.98949751252584     -1.62178295376428
  N   6.57647555721408     -2.05513255824266     -1.81623943068750
  C   5.91829877538910     -3.37283994474916     -1.60842094630098
  C   5.73175308209161     -3.76316268726120     -0.32957260241912
  C   4.54625528908754     -4.39144140358805      0.22738599867347
  N   3.66690075686178     -5.02482206916159     -0.50823512304005
  C   4.38434993623110     -3.87168024125957      1.58793653574464
  O   5.25458628777213     -3.71581312525268      2.42411347261473
  S   2.68035350735761     -3.18857043919563      2.01824265683282
  C   3.03713756121011     -1.44862114021608      1.81012211985045
  N   2.63972124594866     -0.63548778686413      2.69784109189597
  H   4.36239939609023     -1.44786624275536     -2.51575239065490
  H   7.50884107295930     -2.03845072720988     -1.41623198466312
  H   5.32906744263348     -3.73260475456197     -2.44068996325070
  H   6.35637447635679     -3.28639354409426      0.41727942315446
  H   2.82398159100831     -5.18923362949668      0.04278340972595
  H   2.85948127550826      0.31956407133175      2.40848970054223
