24
Coordinates from ORCA-job 18889optt
  Br  1.08191697272695     -0.30527052715521      0.24060821954037
  C   2.94582412936864     -0.10747120988701      0.10825440982425
  C   3.72906666766809     -1.22212948588060      0.16193946490079
  O   3.34880080991417     -2.47632888303730      0.31309914634494
  N   4.50692158168108     -3.34184176765542      0.32330795948125
  C   5.55525195423068     -2.50497789636373      0.16503906964533
  N   5.09140641136041     -1.17105113200796      0.07898084457819
  C   5.71408901441768      0.04244330884465      0.02508057059097
  C   4.99155994633072      1.18229463277022     -0.03280866590227
  C   3.53150192903043      1.20866068767508     -0.02436529562511
  N   2.80557872698026      2.27720993388349     -0.10107608087919
  C   6.88439104577193     -2.92549205874287      0.10171651136150
  C   7.40703627847771     -4.17031785203456      0.40223863473307
  N   8.82755995225030     -4.04128610881445      0.32899466616926
  C   9.15709316973388     -2.82546498666481     -0.22436713026973
  N   10.26967700174530     -2.37713050266898     -0.68737460923308
  N   7.98514091589737     -2.08776839531327     -0.23001657387798
  H   6.79140124342169      0.03158323868556      0.06567367847058
  H   5.51679445806895      2.12746167521634     -0.07286474897510
  H   3.41151606783513      3.09081967260104     -0.18170965505725
  H   6.94346242101073     -4.94351640369273      0.98845136474987
  H   9.42028359877098     -4.82606796099699      0.12022855287738
  H   11.00076978089048     -3.07410162664536     -0.58996817960415
  H   7.92895592241629     -1.37925635211508     -0.94306215384387
