20
Coordinates from ORCA-job 18896optt
  Br  1.23534561889885     -0.08285433669239      0.74464545313389
  C   3.05156600228148      0.05601610848213      0.28441083282237
  C   3.77831409136226      1.11900107850673      0.61138433007820
  O   3.41961545077198      2.22467062160718      1.30098565660788
  N   4.53289048772281      3.10188821444055      1.33917656712672
  C   5.48215595193475      2.48985827497985      0.69925337164672
  N   5.10130285124570      1.26517877069697      0.21644756208517
  C   5.80170434675878      0.19681135977582     -0.47016174834560
  O   7.02322734310766      0.30807382249836     -0.67423218604294
  C   4.99461729106988     -0.94068402343401     -0.84102751117206
  O   5.45423823140954     -1.94867913175129     -1.38030945931456
  N   3.58837412835525     -0.91942855775513     -0.57376423197917
  C   6.77260888151524      3.15847116799128      0.53350173749498
  C   7.85550818671422      2.87756965234707     -0.26188815520400
  N   8.69969784090233      3.89103720650249     -0.00745055119852
  N   8.19684926798637      4.74957493510937      0.88615024071696
  N   7.03350488655533      4.31572631880629      1.21339340954732
  H   3.25921368438920     -1.86324649179766     -0.41625035524788
  H   8.05134221554402      2.04541834000560     -0.91398352490162
  H   9.62092324147410      4.04559666968075     -0.37928143785387
