21
Coordinates from ORCA-job 18899optt
  Br  1.12279336451085      0.54340753606131      0.40666809235157
  C   3.05653220879989      0.13106348446599      0.01235422010991
  C   3.89339810051955      1.23533574673834      0.13933210053512
  O   3.48406444052166      2.48946038219501      0.47775378759725
  N   4.57574308422760      3.35021541463098      0.54167197536676
  C   5.61086988656574      2.61636511576802      0.20092739917060
  N   6.90021453537124      3.16539535999124      0.18798317458597
  C   8.03802708284761      2.47981198199665      0.76821248789595
  C   9.07477824773864      3.60162330714454      0.72891962176328
  O   8.61254367958864      4.49009126327562     -0.28234958804600
  C   7.27808343221325      4.27916906976301     -0.51749460141026
  O   6.63506719732235      4.97882978934014     -1.23662647894291
  C   5.28232928107984      1.28401920843814     -0.05869873401072
  N   6.15052057985873      0.27793827752296     -0.42724167313531
  C   6.14143198420098     -0.89882623847151     -0.66594279553567
  O   6.31975102245109     -2.02385541536063     -0.92362651285599
  O   3.35917168426939     -1.00912066599256     -0.30175052992579
  H   8.33040390154171      1.61535072970323      0.16890279737279
  H   7.81593620191461      2.14620984227484      1.78118708649624
  H   10.07091854047549      3.25778427065278      0.45928440637288
  H   9.11742154398101      4.14273153986187      1.67653376424432
