21
Coordinates from ORCA-job 18890optt
  Br  1.04218927993560     -0.28151480228831     -0.68494521163555
  C   2.83692507676523     -0.10643904386609     -0.17024997537158
  C   3.67539443118109     -1.16448357157075     -0.14443478563036
  O   3.39240535794633     -2.43437526219019     -0.49920047010933
  N   4.52975947724473     -3.23749692673394     -0.28169347046933
  C   5.41503075505126     -2.41762757991855      0.16973992204889
  N   4.98154716857718     -1.13567333330837      0.27388758285096
  C   5.66706377992679      0.03505047600626      0.65973730013630
  C   5.05023658600453      1.27944609439358      0.39502678570993
  C   5.78869599044174      2.44964905295508      0.03615633289880
  C   7.15022648396800      2.64286078714107     -0.17602683038599
  N   7.37031601600191      3.94409123267898     -0.48327492103535
  N   6.24975098743012      4.58155222446611     -0.48215431201526
  N   5.29281133405484      3.69696549021386     -0.15952124081158
  S   3.35296800204228      1.36759470994672      0.63531392032063
  O   2.96861819324627      1.24458032556614      2.02342570069967
  O   2.81280134485326      2.50953752151231     -0.08061977361398
  H   6.41414140456848     -2.71816491853721      0.43932088170421
  H   6.73747641940991     -0.07859282264230      0.72837685244553
  H   7.95284003392629      1.92846229594693     -0.12669758656093
  H   4.31480187742403      3.94557805022866     -0.16416670117571
