22
Coordinates from ORCA-job 18895optt
  Br  1.21145341227228     -0.46676554045336     -0.41655408407276
  C   3.08820982368487     -0.38336682195565     -0.21488719586701
  C   3.62445124106651      0.84475905025198     -0.17796730439264
  O   3.03930143558916      2.06094170163291     -0.26327608198599
  N   4.04664962496113      3.05309668016115     -0.16219670271644
  C   5.14414152675045      2.40342044627720     -0.02990516410425
  N   4.96511957475097      1.05572421825522     -0.03256120674080
  C   5.92929896867596      0.01927011233668      0.10099241655747
  O   7.09968580209137      0.37895721739732      0.23202577336845
  C   5.38416497508764     -1.30447187735566      0.06231855146697
  C   6.37959676260804     -2.30376712621282      0.20682130797978
  C   6.29064719391670     -3.68757218173515      0.22467094874733
  C   5.20788096807253     -4.53331975630062      0.09762674437552
  C   3.82028394052552     -4.17694922868692     -0.09590484009661
  O   2.97577678183691     -5.07484118694654     -0.21082552790261
  C   3.34683171074110     -2.79246434920151     -0.16019620936677
  C   3.95499554320689     -1.56558179468787     -0.10111188014420
  H   6.11656083634713      2.85416430430310      0.07651339618530
  H   7.37459924919316     -1.89388535138797      0.32340296936100
  H   7.24714539602260     -4.18617726044070      0.35856842097434
  H   5.37738928406614     -5.60261965533450      0.13636739044405
  H   2.27381594853292     -2.79155159991629     -0.28792172207014
