20
Coordinates from ORCA-job 18902optt
  Br  1.24507719870222     -0.00191287933130      0.04723126028108
  C   3.12899645977613     -0.02413789307457      0.03039635069372
  C   3.79927927877813     -1.20315186087594      0.05856633681031
  O   3.13118943093534     -2.37805929627055      0.09811221207751
  N   3.84507093852052     -3.58414957994635      0.16238709898808
  C   5.13620260294119     -3.46890716614343      0.18238771212150
  N   5.91303360055159     -2.36931374440987      0.13605241280823
  C   5.23224721626938     -1.21920461730667      0.05390677103408
  C   5.84697718389608      0.05527386749826      0.01259633343451
  N   5.22534808829846      1.20580622665138      0.00217949288377
  C   3.83548128014349      1.25766602849718      0.00075206800091
  O   3.25142021415106      2.33146390007626     -0.02146833847564
  C   7.34151175406878      0.13423119088541     -0.06503885711425
  O   8.05618867010143     -0.51387141854885     -0.76646331441857
  O   7.81411810556220      1.11856682295117      0.77309149105785
  C   9.13994436638548      1.42412156592005      0.73264218150519
  N   9.64010325319989      2.34669724816849      1.42004233726964
  H   5.64098940935081     -4.42753421621415      0.24463159994235
  H   9.72701019416031      0.80631763020925      0.06212657706554
  H   8.91381075420744      2.80409819126422      1.97386827403417
