21
Coordinates from ORCA-job 18909optt
  Br  1.68037580984943     -1.43508964788633     -1.64078187715002
  C   3.01502188549756     -1.57924372189315     -0.29490858461107
  C   2.68843675412233     -2.03472643629357      0.97813659683286
  O   3.67247589675595     -1.91956359599843      1.92424379963637
  N   5.00559322244330     -2.29056347653182      1.54553600537232
  C   5.28568286415310     -2.08328747611257      0.31509741909965
  N   6.56559419366782     -2.39939615048829     -0.14324316907911
  C   6.94147079186043     -3.49990471951245     -0.63513501461426
  N   6.26726887786228     -4.69501716429163     -0.83520427874407
  C   5.06740877770731     -4.93802587073114     -0.12999606090999
  N   5.11445137812255     -5.33795871833387      1.13359951003009
  N   3.87855997512556     -5.12979634282207      1.57988373187558
  C   3.04684513689382     -4.57852165130256      0.65666071605810
  S   1.69269991815124     -3.56248866174510      1.13170604881263
  C   3.78786447005673     -4.52113897353163     -0.51335694194093
  C   4.35894653696505     -1.45944816589212     -0.70779069892629
  O   4.79623917289299     -1.06139353462737     -1.79277383139165
  H   7.96620405624586     -3.55542663494673     -1.00318461732745
  H   6.86900963968573     -5.48499679406665     -1.00555343823665
  H   3.68727333037835     -5.19402261558665      2.56558590218085
  H   3.49057731156254     -4.07998964740581     -1.44952121696696
