19
Coordinates from ORCA-job 18904optt
  Br  0.98443556533329      0.37477091330351     -0.02584451307202
  C   2.85531234562274      0.12540394228622     -0.06158725020500
  C   3.62486492043031      1.25881348074384     -0.07201860576140
  O   3.03787464631022      2.49238521792325     -0.06413048303530
  N   3.86100917641002      3.64722485268326     -0.07145828934515
  C   5.11991739705189      3.42945940756859     -0.08654525909287
  N   5.82451678140734      2.25247203488784     -0.09673103505233
  C   5.04987134125432      1.20172178644469     -0.08933149511059
  N   5.56960134401020     -0.06205843168103     -0.09618558148789
  N   6.92887403426472     -0.32948871566357     -0.11292522288969
  N   7.07498665294798     -1.59320465933201     -0.11802056712093
  C   5.84506331758667     -2.26564080333152     -0.10566676994497
  O   5.70931726443495     -3.48958457009219     -0.10738005841022
  C   4.83399709081310     -1.21338226987095     -0.09044239842324
  C   3.44446997091976     -1.17240076962442     -0.07396225209206
  C   2.73946581920472     -2.45800156939212     -0.07572088536084
  O   1.53681638446490     -2.61725161017729     -0.07233029511744
  H   5.70923890805147      4.34053014364120     -0.09129086276688
  H   3.42436703948135     -3.31876838031729     -0.08242817571120
