21
Coordinates from ORCA-job 18914optt
  Br  2.17380165099964     -1.50264303173345     -1.63619438305040
  C   3.48767060525984     -1.14609098676317     -0.34751125803724
  C   3.47743205592861     -1.58834084294175      0.90904811978800
  O   4.65866598587366     -1.37147813175498      1.60763930669836
  N   5.80917067980382     -1.70506008952479      0.87044388482450
  C   5.68446098467190     -1.44378305351380     -0.36312665272030
  N   6.43688324409771     -2.10231873083339     -1.30961823572038
  C   6.44439142549474     -3.52312382421156     -1.48114722198407
  O   6.98772246242338     -3.97176667031115     -2.45941880344207
  N   5.91102958698341     -4.22462733208013     -0.43399581300503
  C   4.68966371804275     -4.12330196178528     -0.08049702848183
  S   4.14877497949924     -4.53794400860846      1.50564915220235
  C   2.50400742233589     -3.77532897904826      1.68426131722397
  N   1.52187172899350     -4.54516301966295      2.06479489712783
  C   2.37400860316647     -2.34297145523905      1.55164043313549
  N   1.23729360011152     -1.73940214057669      1.83246036664631
  O   4.67144185413344     -0.62196748542394     -0.83690357842906
  H   6.65544732406175     -1.61116409688274     -2.16420201014560
  H   3.91849919310945     -3.69646229025485     -0.72876778342818
  H   1.81355224006114     -5.51808759879180      2.06978633089358
  H   1.33621065494808     -0.74697427005778      1.62365895990377
