21
Coordinates from ORCA-job 18919optt
  Br  1.02324729253575     -0.06251772653210     -0.39147999145990
  C   2.88825592579448      0.04252965917684     -0.19317597968162
  C   3.58945775616057      1.19752295371181     -0.16245649633306
  O   3.13639826779827      2.47337289953256     -0.25247298670172
  N   4.24068681688822      3.34529188793202     -0.16484827723397
  C   5.28280397887257      2.54515179540552     -0.03191532600991
  O   6.56344900538915      3.00977132823016      0.09605562372162
  C   6.88594252452660      4.29899792158763     -0.02804038377274
  C   6.16753527106756      5.44296202556484     -0.25400419473661
  C   7.05890019362163      6.54222669190029     -0.29764597066672
  N   8.33700416340246      6.31043596362630     -0.12503845915333
  S   8.55774738266278      4.69317868463769      0.10713978334645
  C   4.99680189401195      1.17551495179509     -0.01949058254500
  C   5.70944333775613     -0.03469770086004      0.08788632397154
  C   5.00021782282140     -1.26054063704866      0.06062891550501
  O   5.46147587681800     -2.40490847069145      0.15109527995907
  N   3.59430913588841     -1.14827578552098     -0.08881990980138
  H   5.09890875285484      5.47440889492804     -0.37246312788017
  H   6.74379107453350      7.56606279838049     -0.46454211919663
  H   6.78153123358661     -0.07101597266959      0.19877154155082
  H   3.10109229300906     -2.02547216308649     -0.09418366288176
