20
Coordinates from ORCA-job 18913optt
  Br  1.14417503659940     -0.37831657239849      0.07436561983645
  C   3.03832274108548     -0.12298111017867      0.14755037873361
  C   3.80743799106760     -1.21040492483930      0.41121817538427
  O   3.47109170578580     -2.54975030801491      0.41391319756638
  N   4.66146208286709     -3.28602861972549      0.37246311131545
  C   5.60181706261803     -2.42740952923893      0.44186253814940
  N   6.95639117511231     -2.76166703767679      0.30479302835235
  C   7.43547881614267     -3.11170946731958     -0.96399566464123
  O   8.56285690034350     -3.46724447314652     -1.16126541499093
  C   7.83933411808792     -2.55237032763851      1.37256619163282
  O   7.47580122804821     -2.32900581021090      2.48842073310417
  N   5.20003628900972     -1.11964949711960      0.58820821622534
  S   5.92421872379931      0.13893919134223     -0.44068911947048
  O   5.82518269052179     -0.49932539130089     -1.73871177775550
  O   7.25652989182014      0.38113114032566      0.05219425560818
  C   4.82005435262082      1.35035695151177     -0.08891927215949
  N   3.49747561705415      1.12262678424688      0.03176959838584
  H   6.66038592973421     -3.01760931084348     -1.73385626163097
  H   8.88267745153796     -2.63031446600165      1.05059996313511
  H   5.24127019614377      2.33873277822720      0.00851250321924
