30
Coordinates from ORCA-job 18910optt
  Br  1.38005291994334     -3.33939812201610      0.40217093859404
  C   3.17067442450823     -2.93735136182537      0.88616447288877
  C   3.79223159721122     -3.58103710140932      1.89083960526377
  O   5.00507134435807     -3.11865269417679      2.29813719105820
  N   5.94116087340361     -2.91886581975569      1.19930002767936
  C   5.35186671952161     -2.38079779060900      0.15299925656492
  N   6.22013120130709     -2.23263182948659     -0.97827599214948
  C   6.11715643556114     -3.40636865333707     -1.82995933213258
  N   5.75228998714111     -3.32345833071779     -3.03513916704943
  C   6.45086348528836     -4.75239476049780     -1.21602905484406
  C   5.23344903784660     -5.46503140883283     -0.57217734200034
  C   5.57061839258921     -6.04318721960684      0.80321138437509
  C   4.40963598353183     -6.71458201110959      1.53889893757746
  C   3.16294238773873     -5.86493680218831      1.74520091815064
  O   3.37751768743897     -4.69498778508065      2.54501506569209
  C   3.95680985492122     -2.10719260056916     -0.02216061201230
  N   3.40203718886685     -1.40274107284524     -0.99625328674905
  H   7.16936071830444     -2.18446775874172     -0.61503822007597
  H   5.53159562562252     -2.34867383278853     -3.24249888546707
  H   7.21026810954675     -4.60423109067626     -0.44589291072928
  H   6.87221702691371     -5.37320224972919     -2.00662393336130
  H   4.88494596706256     -6.25904481348449     -1.23906313741698
  H   4.40664059224858     -4.76050113511660     -0.48909351906308
  H   5.97173241311749     -5.24149331786569      1.42440597866009
  H   6.37317926960352     -6.78109567321753      0.69039720219279
  H   4.08048051097842     -7.60132686375756      0.98237129561300
  H   4.76392027496182     -7.06484327475597      2.51231391906312
  H   2.73585255378170     -5.58082372528872      0.78479316832866
  H   2.40956972440009     -6.44331746460828      2.28279295774469
  H   4.15372769228108     -0.98836343590523     -1.54480692639577
