21
Coordinates from ORCA-job 18927optt
  Br  1.05766592624891     -1.24155102919482      0.69221827964035
  C   2.89740316642307     -0.96743992009899      0.42617750138219
  C   3.91917379201081     -1.40213545265952      1.22093698972175
  O   5.07467250172947     -0.58316506352702      1.03813223386102
  N   5.77280316234483     -1.13322877825402     -0.06423769774104
  C   5.00590084894604     -1.26035002261905     -1.07551406374882
  S   3.42737857334952     -0.39913166965169     -1.15981581938898
  N   5.13926449691687     -2.37441972581477     -1.94884589901438
  C   5.42516314552344     -3.36523217987423     -1.20266857605259
  O   5.23089369073206     -4.65493289691816     -1.52480285856034
  C   5.16411405409965     -5.49207763116713     -0.40745691566671
  N   5.62106586403429     -6.65465597423619     -0.56506604377305
  N   4.61734668527342     -4.95937973686490      0.76326238578551
  C   3.70367709253931     -3.85552855880574      0.78210679376484
  N   2.70242058471244     -3.80188442773829     -0.00387976315620
  C   4.19919084778888     -2.75532035366473      1.67727849272626
  O   5.07834426676837     -3.04758927884762      2.52643621182550
  H   5.79839637293458     -3.22835422547805     -0.19540841773037
  H   5.41331492471416     -7.20598622142061      0.26261839545370
  H   5.24532861564450     -4.93285354373522      1.56281719700343
  H   2.64548138726529     -4.63378330942919     -0.58928842633206
