22
Coordinates from ORCA-job 18920optt
  Br  1.59302828810512     -6.25542261280160      0.00135159419526
  C   3.28192251472519     -5.54943927216598      0.48013521467471
  C   4.27571783524557     -6.39550102937119      0.95282789460403
  O   5.38922895326982     -5.75726380185420      1.46891067231484
  N   5.94647866887447     -4.72277212531917      0.68897535046338
  C   5.09992400954988     -4.09506865418597     -0.02513666867829
  O   5.63284654238976     -3.48338832414738     -1.16532768221102
  C   5.66741331604148     -4.59127011336640     -2.03871101251819
  C   6.57551468027035     -5.54858383761942     -1.81972363611861
  C   6.09580178070479     -6.91836562383277     -1.64405920029294
  C   6.46058638728490     -7.56675884941777     -0.52526853426817
  C   5.47870564170006     -8.41571529658997      0.20554584914316
  C   4.37218685457669     -7.80848746144619      0.77151378789474
  C   5.62450259860563     -9.82559586439771      0.23803474995154
  N   5.75230610692916    -10.97358931016664      0.25100485763442
  C   3.61036914397991     -4.24391481498264      0.01637219330504
  O   2.86093637644739     -3.40748553974827     -0.49539495547455
  H   4.73207374996153     -4.74147161937981     -2.56925470273798
  H   7.42505910659208     -5.27044558690028     -1.20806094396263
  H   5.16807069058643     -7.19749205056495     -2.13524135746676
  H   7.35870896072159     -7.24887948842649     -0.00189921703916
  H   3.51061779343813     -8.41408872331513      1.03040574658718
