21
Coordinates from ORCA-job 18938opt
  Br  1.41844668740469     -0.71657087811120      0.54517231477895
  C   1.93954828585798      1.04365308117467      0.05320364736760
  C   2.91519245455772      1.26342721671567     -1.00629720270368
  O   3.51142080137813      0.38520480415988     -1.59252793330018
  N   4.33138103874932      1.33937839478037      3.00785038071604
  N   3.35174736786131      1.80660244475901      2.97463367684249
  C   1.27001707765461      2.09475078637204      0.59805694852336
  N   0.77545355630936      3.05040939878200      1.06605412773631
  C   0.03327133098153      4.20158679023696      1.21931074668824
  C   -0.10163944438114      5.16703785015053      0.23986766923950
  N   0.46696930838045      5.24942842716432     -0.96459524255824
  C   1.61301881882369      4.55112765182734     -1.11754356445616
  N   2.71241751973498      4.76085463219448     -0.30299422663902
  C   3.55663369709044      3.64608838113346     -0.30519039794051
  O   4.52951418471353      3.51521280304613      0.42592940222192
  C   2.96369241730096      2.74371957064723     -1.28714568767663
  C   1.85471032199126      3.38538922152705     -1.85003302671237
  H   -0.40556494734215      4.34011852039687      2.19487060513183
  H   -0.80960373229731      5.95648219936062      0.49016818393591
  H   2.74704986463062      5.46708759663138      0.41306116199743
  H   1.10532339059969      2.92501110705056     -2.47485158319285
