22
Coordinates from ORCA-job 18939opt
  Br  4.88556600092099     -3.67930700992687      0.26286611603646
  C   3.79493057454616     -2.23894008041484      0.84126584924390
  C   2.69826971904768     -2.48394218472085      1.86148723547167
  O   2.81318338984397     -3.44137849232603      2.63315840799632
  N   3.86450017843815     -0.96417027290358      4.73923009173431
  N   4.11210395795248     -0.40202957908654      3.84292523272233
  C   4.08783585625305     -1.02447410310242      0.44612734023716
  N   4.28676890331514      0.14977923239787      0.18830318824482
  C   3.67310856771377      0.82825788402696     -0.91235384245797
  C   2.47063151039344      1.43875126964638     -0.98542530298800
  O   1.44090891626866      1.60352422049316     -0.14911981478845
  C   1.21960323035938      0.82478164873782      1.03511954336758
  N   0.77550436393518      1.44532238691846      2.06290212925624
  C   1.51696345779276     -0.54305390608082      0.88008099291954
  C   1.71647483844299     -1.45304821662078      1.91624072737309
  C   4.52047550294660      0.93626588474355     -2.05896704739735
  C   5.25830793110848      0.99849884302047     -3.00501084418012
  H   2.28412111742512      1.96107032560943     -1.91637591930330
  H   0.73218529275137      2.44287961342121      1.87279033631206
  H   1.81710252777830     -0.83468110689753     -0.11636027836150
  H   1.22042108425689     -1.31721602967080      2.87105190613811
  H   5.90703307850903      1.04610967273580     -3.84493604757693
