22
Coordinates from ORCA-job 18932optt
  Br  0.85049168907742     -3.51687930521435     -2.30662078064123
  C   1.26845355757017     -2.30882413223694     -0.84784171280362
  C   1.79970251903124     -3.04296055782326      0.35713942418948
  O   1.97788487454296     -4.23495282498081      0.32791751961073
  N   5.01431526949557     -0.69524403788868     -0.07847318774677
  N   4.29410815228464     -0.31458185057036     -0.79695471339876
  C   1.14730272007449     -1.03669529255342     -1.08477350940419
  C   1.09609231454879      0.18634982001706     -1.55174984416503
  N   -0.02757714354110      0.99167150306032     -1.79283121938606
  C   -0.72198490396029      1.51801844741158     -0.87945952369623
  C   -0.45346991011204      1.47474626375819      0.60965662564749
  N   -0.12729076853323      2.55198759529616      1.22635099316448
  N   -0.74077207521709      0.27621857714758      1.15984406083889
  C   0.08105683220293     -0.62068043293498      1.64831573235557
  C   1.50528602677615     -0.55176010117711      1.70122599875562
  N   2.30351702020412      0.47690963389585      1.65565050890994
  S   2.28189337219845     -2.16351990508966      1.81656861658245
  H   2.02760992813793      0.59806901966811     -1.93186712930660
  H   -1.58028853887091      2.11502766575981     -1.19545171769867
  H   -0.09057266849961      3.32957917781262      0.56740048161668
  H   -0.37197809599415     -1.55456202390695      1.96779984682612
  H   1.74821982858349      1.32908276054930      1.73215352974970
