19
Coordinates from ORCA-job 18945optt
  Br  1.08991304648516     -0.41004652625282     -0.23479298556427
  C   2.97302344844433     -0.33999008179122     -0.05772957135082
  C   3.56832572363670      0.88303919509939      0.07282102706613
  O   3.03175295251321      2.10859947407566      0.07565098503607
  N   4.11421959981069      3.01744488156470      0.29540555782670
  N   5.17493391935169      2.37728718659640      0.40830456482663
  C   4.94727756504840      1.02618601661579      0.28310103697678
  C   5.79028178369455     -0.06741519012751      0.29002653206306
  Br  7.63757227413686      0.17432812616472      0.48769642543896
  C   5.25687877843500     -1.36889110963320      0.04101535990858
  N   6.09933543327255     -2.34702536502738     -0.18323314063222
  C   5.74381604199969     -3.59683169678932     -0.63211263627886
  O   6.12557293566686     -4.04072045073416     -1.68923299678750
  N   5.01471442094205     -4.40630372351217      0.25970794575479
  C   3.83116948317079     -3.99034171017961      0.55265832851368
  C   3.18393748698269     -2.75779203181215      0.25178320354966
  C   3.77297991180448     -1.51763737916781      0.03329581813578
  H   3.21917603297785     -4.68981061506289      1.12542494728144
  H   2.11111916162641     -2.76407900002642      0.38720959823541
