23
Coordinates from ORCA-job 18946optt
  Br  1.43712320682299      0.18588456265024      1.34191105154052
  C   3.07667720235102      0.09659087189084      0.40323643943000
  C   3.61230470748717     -1.09058844862274      0.07574915313986
  O   3.11458334459480     -2.32684967136113      0.14154200805580
  N   4.19088613280892     -3.21538138510728     -0.32187651028112
  N   5.21132511741594     -2.49163616573265     -0.57326583300776
  C   4.96979263570443     -1.18287329004275     -0.35381363196197
  C   5.78359764284846     -0.05927366769757     -0.35861928623573
  C   5.25589624864791      1.21565899884179     -0.00276915730280
  N   5.90679318563248      2.33846689256986      0.04097086270509
  N   3.84617965064382      1.27250250606307      0.28618143884475
  C   3.15137028712440      2.47211871118030      0.01715438027724
  N   2.11608958024906      2.38910906599089     -0.81023797583714
  C   1.40888009043524      3.48809418322420     -1.05222672586878
  C   1.69669812601682      4.72211899173828     -0.49726163915297
  C   2.78271638626963      4.80171930552863      0.37000949512121
  C   3.52293275156884      3.67032806970643      0.63895085146834
  H   6.83492765828097     -0.12270602137484     -0.59857081162756
  H   6.86052508374308      2.16122307930594     -0.25783925381817
  H   0.57227749875300      3.37061638374264     -1.73421119289764
  H   1.08919617357861      5.58607390607662     -0.73107331744261
  H   3.04395570126522      5.74177218409580      0.84068225479944
  H   4.37627158775714      3.67703093733341      1.29637740005200
