22
Coordinates from ORCA-job 18949optt
  Br  1.48600044560913      0.18138001965254      1.71402861620167
  C   2.96788064728279      0.03580680682370      0.57511154595377
  C   3.55648906978277      1.10760241352269     -0.01538343442133
  O   3.27048611290666      2.39141205417640      0.03776972165225
  N   4.26985435926690      3.07284114283687     -0.82361806955092
  N   5.03252829591913      2.18054262314501     -1.29249496069231
  C   4.68973093601028      0.94495806839972     -0.86311241231611
  N   5.29036006200420     -0.19625135348100     -1.16371004802334
  O   4.65556120717675     -1.29068519767729     -0.52566840464088
  C   3.54077083573576     -1.25185890275308      0.27992573206271
  N   3.09421756698462     -2.36230748968564      0.72276263538464
  C   3.84827535642780     -3.53729956203566      0.34604647839673
  C   3.96670690885013     -3.75603338210460     -1.16175153458028
  O   3.03129503795615     -3.69975779013741     -1.91029465496513
  C   5.36772288372798     -4.06893405715350     -1.70082609278525
  C   5.97353082408131     -5.21818518100447     -1.03871531036475
  C   6.44658267024151     -6.16998098442982     -0.48436933855520
  H   3.34383012240440     -4.42013041282969      0.74837272289273
  H   4.85983978136671     -3.51873157500178      0.76748579772092
  H   5.97538832164848     -3.17611483252663     -1.52755853006849
  H   5.28818722065031     -4.23935985169394     -2.77383267157943
  H   6.87276133396600     -7.00991255604230      0.00783221227804
