21
Coordinates from ORCA-job 18952optt
  Br  1.23576937269777      0.08583803355664     -0.77045623354640
  C   3.06695889068012     -0.13484171929303     -0.40760459360490
  C   3.53875150926790     -1.39903484775177     -0.18631104716834
  O   2.78177110802112     -2.46429081695442     -0.21178834636736
  N   3.08037638428733     -3.40634274547953      1.03835937134750
  N   4.30932177128255     -3.65939407432868      1.09968931785548
  C   5.26405799706731     -2.96867029358931      0.46607706552338
  N   6.42807479547454     -3.50010990268886      0.24414715790151
  C   7.47238707358098     -2.81828296695977     -0.33148939826147
  N   8.13960333631696     -3.19760356488808     -1.34499031848418
  N   7.94689993350389     -1.65915981950074      0.34519881023189
  C   7.15649130669693     -0.70121319483663      0.55796770218924
  C   5.73256722965759     -0.54762523826977      0.19043895835166
  C   5.27972144329352      0.70972514158401      0.00096255159664
  C   3.91463167092446      1.03422491840369     -0.38168414118706
  N   3.47918806547677      2.22061153955668     -0.63490926753184
  N   4.89111459114932     -1.63655081782206      0.05134147214687
  H   7.69365284931414     -4.03468018108363     -1.71707007588961
  H   7.56298220438847      0.18580005311956      1.04393044684345
  H   5.98081294494933      1.52578265632460      0.12762605670082
  H   4.24186552196891      2.88881784090109     -0.54243548864728
