20
Coordinates from ORCA-job 18953optt
  Br  1.20941259167860     -0.17549763047717     -0.00667876545288
  C   3.10764438383528     -0.08057369030783     -0.00889858292396
  C   3.73046991505317      1.13787318399553     -0.00995476571107
  O   3.01793045870503      2.28797082638515     -0.01001397317774
  N   3.71174337345044      3.58867030872005     -0.01085301576775
  N   4.94874875923628      3.56913067816200     -0.01174305071102
  C   5.71574337980070      2.45562345475830     -0.01194336358089
  C   5.15062610410368      1.18112199948440     -0.01102200795272
  C   5.88012874204508     -0.04536165869507     -0.01096915132216
  C   7.26701455570796     -0.15879032997243     -0.01151033977858
  C   7.94995802474189     -1.40460027937673     -0.01152120801462
  O   9.17076043527762     -1.54140725458774     -0.01174246129230
  C   7.08004502626705     -2.66390744489618     -0.01110980591979
  O   7.52953094966830     -3.78827443832014     -0.01135639792152
  N   5.72202681732983     -2.44815942688176     -0.01052621007254
  C   5.07124434162268     -1.22857175377611     -0.01024012340111
  N   3.76854096529958     -1.24771443227459     -0.00919270858197
  H   6.77963369100496      2.63102835910996     -0.01282483020566
  H   7.89472651028985      0.72289656758131     -0.01180215246075
  H   5.13507097488198     -3.27145703863096     -0.01009708575096
