22
Coordinates from ORCA-job 18965optt
  Br  1.06519387197411     -0.06203847370977      0.05465814683638
  C   2.95128058780333      0.02687669097927      0.04920854695858
  C   3.67294811986319     -1.13988555228954      0.04346774003076
  O   3.27961046455352     -2.41164249735643      0.03891158097370
  N   4.53639804014182     -3.21372810951102      0.03438714060491
  N   5.50931366910102     -2.36033273457150      0.03588674379156
  N   5.03079520743961     -1.12996711763470      0.04120091120744
  C   5.79703710151884      0.04435246695244      0.04396926306400
  C   7.16797955940891     -0.01837507719857      0.04212854922297
  C   7.95761762087098      1.18032858041246      0.04445862618083
  N   9.26111852452490      1.26495585237768      0.04347687006814
  C   7.18984518579813      2.41538567654930      0.04803381941878
  C   5.82876554561160      2.45690049416296      0.04985741661985
  C   5.15947901774643      3.72447204001474      0.05305281925506
  C   4.58821115107561      4.78131068966211      0.05583701540437
  C   5.03732492280906      1.25082434013902      0.04835062626983
  C   3.64019641496774      1.24133522338869      0.05121999893273
  H   7.65273173384713     -0.98529803875850      0.03851446530641
  H   9.65953917282071      0.32726828265535      0.04092763803540
  H   7.75824348982210      3.33692870539750      0.04918597289869
  H   4.08766414142984      5.71853265858303      0.05817218023556
  H   3.09370645687136      2.17379589975547      0.05509392868404
