20
Coordinates from ORCA-job 18966optt
  Br  1.09766472745359     -0.00115037984781     -0.43570918639212
  C   2.98837585194810      0.05104071361368     -0.25145004376274
  C   3.66272589370760     -1.12030991632914     -0.14004203355022
  O   3.27282938877801     -2.39400435112541      0.03006671886226
  N   4.46288688520292     -3.09753940191226      0.48021171057362
  N   5.41740390297693     -2.30773510439696      0.45100687790643
  N   5.03717970851745     -1.11803660941342      0.00327038123058
  C   5.77640233352600      0.07853140071697     -0.07482566749424
  C   7.17777688348142      0.11683524734952     -0.05543585639219
  C   8.03845262076893     -1.00496018224634     -0.40053368334019
  O   7.70023844985006     -2.05839998085699     -0.90983551159877
  C   7.84824983223417      1.40061322486698      0.09782174758527
  O   9.07854250396582      1.52577930266319      0.20828402702363
  C   6.98004138076311      2.57292414673369      0.07133617971146
  C   5.63765928598941      2.48328213694186     -0.05939183333427
  C   4.96152648093025      1.22732454784290     -0.12693649943221
  N   3.59965233605742      1.23260081103068     -0.23458891545429
  H   9.10305761364118     -0.78555083083969     -0.22704714461091
  H   7.47686920457473      3.53254024232939      0.14840606816195
  H   5.01146471563285      3.36721498287915     -0.09360733569305
