20
Coordinates from ORCA-job 18984optt
  Br  1.20345892000543      0.17906804209809     -0.77997176742066
  C   2.90576340160416      0.06765728692025      0.00936384875991
  C   3.37496554426891     -1.12784973351849      0.38826377601001
  S   2.77661429869337     -2.80938870525091      0.21048841513503
  C   4.38433372635231     -3.50192444030854      0.61852411371400
  C   5.15374209723451     -2.42936781863801      0.93558598550007
  N   6.44695279974578     -2.46019911037258      0.51912097980858
  C   6.56919641675492     -3.67906919014241     -0.20622069310487
  O   7.55746822923806     -4.17720790982901     -0.67582072667322
  N   5.28340392096495     -4.24443856444067     -0.19993420132302
  C   6.84062634584963     -1.03289325272308      0.19773449339706
  O   7.94881898181665     -0.71155678120947     -0.17810194914053
  C   5.64308428957723     -0.28254673922915      0.46026851500192
  C   5.19691833392053      0.99519047459268      0.15372516254172
  C   3.78283203065929      1.27624863085078      0.05899841297090
  N   3.23219111947034      2.43670510634323     -0.11273816405687
  N   4.65379144393177     -1.17669465236209      0.93171313222552
  H   5.23930545579301     -5.24374059705617     -0.31508421286485
  H   5.90017080800049      1.76382068459343     -0.13563173332022
  H   3.95736183611860      3.15218726968214     -0.10728338716048
