23
Coordinates from ORCA-job 18981optt
  Br  0.96206570528441      0.21334660074212     -0.07659192201934
  C   2.85132354528058      0.12937769052646     -0.03842238208395
  C   3.59440303488961      1.30976149887943     -0.03902990271349
  O   2.89130386017522      2.53154462705286     -0.03391403317195
  S   3.63976533516060      3.78292162173339      0.54741486288542
  O   3.90484703278699      3.57271267707616      1.93498390195271
  O   2.91366921795970      4.93885814568254      0.14501766565718
  N   5.01275092893809      3.69140664568893     -0.34449113765750
  C   5.81858100067274      2.49679728182621     -0.03089374733193
  C   4.96923032137732      1.25658687738715     -0.06196202138813
  N   5.65697312276935      0.10128338143517     -0.05872676521640
  C   4.98056759736324     -1.06324585974277     -0.03666236652717
  C   3.52907688145350     -1.11286042062015     -0.03516862950456
  C   2.91662963163038     -2.36982342597846     -0.02505500313339
  C   3.71128549004626     -3.51829103528621     -0.00667189191190
  C   5.08472079059351     -3.36981795964772     -0.00395125556842
  N   5.71472329447853     -2.19289544489048     -0.02120542166477
  H   5.51785284193105      4.56658771151613     -0.27051282393342
  H   6.29795578834616      2.58617650716704      0.95072590169426
  H   6.59569067271172      2.40404619103496     -0.78932393264368
  H   1.83729297208329     -2.43872202925963     -0.02675845276443
  H   3.26742465373451     -4.50543039735570      0.00654978891078
  H   5.72486628033319     -4.24832088496744      0.01164956813408
