20
Coordinates from ORCA-job 18985optt
  Br  1.26018420376342     -0.14289289663300      0.48576600004536
  C   3.11040755665398      0.08598257336802      0.24072967101687
  C   3.69301695429086      1.30194977366860      0.18250856152465
  S   2.94824109195360      2.88855056093754      0.30227550285245
  C   4.52517960754109      3.62275971777883      0.11190176490560
  C   5.15007896338811      4.83174619873857      0.06451965536820
  O   4.92996260030957      6.13689267856863      0.12985221226860
  N   6.28494233513520      6.75206049653360     -0.02999278048854
  N   7.12466711250123      5.82078221463921     -0.16634642301367
  C   6.53865377839454      4.60427963048965     -0.12360922730602
  C   6.77976566087536      3.22944052162527     -0.19151037269012
  N   5.53481638244108      2.65222943078966     -0.04310784525490
  C   5.10839807504082      1.36158817242464     -0.00582581589300
  C   5.88558794186002      0.20761221899572     -0.12552423661242
  C   5.27413924928019     -1.07106873142235     -0.06320926132340
  O   5.81645627724781     -2.17238016032980     -0.15250604483509
  N   3.86870516403941     -1.05756376247646      0.12513630762274
  H   7.66421891488850      2.63576727986685     -0.32006823327505
  H   6.95385443342330      0.24784010303394     -0.26960027439310
  H   3.43372369697187     -1.96457602059714      0.16461083948083
