21
Coordinates from ORCA-job 18994optt
  Br  2.23660196097508     -2.85607201598883      0.54015172534013
  C   3.37674454906154     -1.38836254568343      0.16094801626723
  C   2.99979443600803     -0.09830282649919      0.45867429392237
  S   1.52188493293083      0.22814108846826      1.36858437688781
  C   0.79253952655444      1.45826855859046      0.38820378760110
  C   -0.53058587280525      1.60785786095859      0.11724397812333
  C   -0.65953441448674      2.92176191998826     -0.47577332802808
  N   0.46132183112671      3.57424051974359     -0.55232628782071
  C   1.42585016283020      2.70186848354543     -0.03800166765423
  N   2.64454015306612      3.11854126227505      0.09214601275169
  N   3.63828877134674      2.33324933782368      0.44186647957411
  C   3.89855527899285      0.96068477276168      0.14596138570637
  C   5.12881052378331      0.70699818158048     -0.40457889963725
  C   5.60469995314682     -0.61153444831160     -0.70337201324781
  O   6.72113673179079     -0.81999572689160     -1.18656945755841
  C   4.66212531403489     -1.75507112447144     -0.41752750234995
  O   4.98089703514199     -2.91572130715772     -0.65611361464320
  H   -1.32051868792723      0.90547261126977      0.33301991500015
  H   -1.58376434937699      3.35886463130513     -0.83499621379066
  H   4.49758622646450      2.86221305949230      0.45246013772529
  H   5.79502593734135      1.52589770720111     -0.65400112416929
