22
Coordinates from ORCA-job 18991optt
  Br  5.60777967296395      2.39493859774557     -2.13618060423200
  C   4.37204659297570      1.24864013029850     -1.24384271467114
  C   3.20925248086181      1.78506676027208     -0.66830758610027
  S   2.73113655896938      3.50077131366930     -0.71018879204060
  C   1.19352577815842      3.35254251791921      0.10449197195179
  C   0.13181165714496      2.60355230442271     -0.45436906699330
  C   -0.50603630213389      1.99352956334280      0.61935925178505
  C   -1.16638121272691      0.69013495018252      0.41163517223031
  N   -0.48847271404225     -0.42931237484006      0.49650028869023
  C   0.67856921322381     -0.44780235803738      1.12778736389006
  O   1.72789741187497     -1.16400607186571      0.54174369883830
  C   2.64191205005843     -0.35007457424143     -0.04350342385923
  C   3.81063342508921     -0.86327421340761     -0.60686082925348
  N   4.65913301288859     -0.02896323868862     -1.19959366088888
  N   2.39098967766172      0.93660753778136     -0.07317232619374
  N   0.05418254813462      2.36888726263155      1.81390663502437
  C   1.07069125265114      3.17459175749141      1.49778290229631
  H   -0.01096543207019      2.38323663287849     -1.50268428454361
  H   -2.15220078123010      0.60960251092985     -0.03977785734075
  H   0.97572106672154      0.26259046717272      1.88657830768687
  H   4.05070319127937     -1.91782749722868     -0.58330894085922
  H   1.71507085154568      3.59856802157138      2.25800449458294
