21
Coordinates from ORCA-job 19008optt
  Br  0.93787756230741      0.10002816745037     -0.16452264641752
  C   2.83035990408295      0.09342952716481     -0.09766989017022
  C   3.51384248618496     -1.12191080616252     -0.06666763745948
  S   2.55297427391998     -2.62181492841891     -0.06699220897602
  C   3.85394405708501     -3.77490678951578     -0.03824212800507
  C   5.18296368148946     -3.51349509687715     -0.00624583735193
  N   5.82100967438322     -4.75861910301150      0.00648617376237
  C   4.91459147159252     -5.79377489040332     -0.01930783060649
  O   5.14127180372732     -6.99333457329958     -0.01876742250967
  N   3.69081786061132     -5.16239039893766     -0.04563830069611
  C   5.76490145700666     -2.22474104480552      0.00460209516741
  C   4.91545993368598     -1.12801379261393     -0.02844573916164
  O   5.55959860085081      0.08079737384865     -0.02500099643117
  C   4.95663526257069      1.29696464730374     -0.04429973581732
  O   5.66685410031536      2.27082107353959     -0.03244688600760
  C   3.46712940523881      1.35489714716632     -0.08196369828617
  N   2.86165621582563      2.50835447885941     -0.10040237139989
  H   6.81158229225272     -4.91889873011028      0.02426688690595
  H   2.82639437838411     -5.67167554396147     -0.07064427430265
  H   6.83198316771071     -2.06847264661056      0.03088218413533
  H   3.57815241077430      3.23175592939531     -0.08397973637209
