23
Coordinates from ORCA-job 19003optt
  Br  1.29581927668077      0.68209259293898     -0.34300521483535
  C   3.14694640182036      0.41249844587958     -0.13182586367542
  C   4.04317558440914      1.48367339682281     -0.17343669259446
  S   3.60033568734015      3.18294141125309     -0.27121488981962
  C   5.25943422279621      3.60158644832522     -0.01907600901850
  C   6.11560664529741      2.52850714309155      0.06320063021879
  N   7.45350417127279      2.94537123586210      0.06552666617321
  C   7.33986599380589      4.21808112297770     -0.07110631303286
  O   8.24613442796663      5.21863152172996      0.07499294242775
  C   7.53086241126864      6.43358717751033     -0.16919026855017
  C   6.05321239729464      6.11136231936217      0.12284839095288
  N   6.06937088544042      4.71169128665533     -0.22153682685561
  C   5.42903772654605      1.26609413626384     -0.00812956367937
  N   5.97800459396164      0.05858204947995      0.12173343736383
  N   5.06015308067625     -0.96415397890171     -0.01281266392074
  C   3.66200236862149     -0.91298821698722     -0.03324180222129
  N   2.92881511450933     -1.98390750572858     -0.00114483827737
  H   7.65629356723562      6.71092087225674     -1.21880405043016
  H   7.94538583499333      7.20770311125250      0.47164093694649
  H   5.37783469063686      6.69465068944811     -0.50121836939168
  H   5.79444562934104      6.25798381903401      1.17685034533491
  H   5.45602140771846     -1.86364330696110      0.19977671649828
  H   3.52073788036674     -2.81026577156538      0.05817330038646
