21
Coordinates from ORCA-job 19009optt
  Br  1.13572625462098      0.20250014740810      0.01748551517169
  C   3.01335155845459      0.05994628242032      0.01802197269940
  C   3.80776277306298      1.21187414408957      0.01837606097391
  S   3.23452712818233      2.86789977015089      0.01861768683948
  C   4.86530990198056      3.43235997118817      0.01906257091692
  C   5.80376209842523      2.41724899892896      0.01889142926302
  N   7.11241773307679      2.82983048441370      0.01908270741458
  C   7.17466695869016      4.11859371898051      0.01937530396595
  S   5.64720824367546      4.95146184409184      0.01947783756550
  C   5.21193668596111      1.10834801783538      0.01854362212171
  C   5.78883025578882     -0.14341706838775      0.01836376547036
  O   4.99164083806647     -1.27945928385083      0.01822426265618
  C   3.61150326736042     -1.22348835514190      0.01801922086427
  N   2.97227842354376     -2.34560685797992      0.01776486297493
  C   3.80255114810743     -3.51919294900849      0.01769189260005
  C   2.98745031523041     -4.74600236236428      0.01761665057590
  N   2.40659412657217     -5.73484140560277      0.01801994527658
  H   8.09502505699922      4.68515671967246      0.01955702542045
  H   6.84073291617512     -0.36879545028100      0.01839163719736
  H   4.46383071661474     -3.58130163835308      0.89250617460926
  H   4.46389359941120     -3.58111472820991     -0.85709014457751
