21
Coordinates from ORCA-job 19005optt
  Br  2.40036433331416     -2.00953420556871     -1.10637771446278
  C   3.43421367661871     -0.58472541731943     -0.33948821482651
  C   3.07251513453032      0.75927421354991     -0.61761010038230
  S   1.77424244346368      1.21724082415872     -1.68627651946857
  C   0.57592105830059      1.73922991824902     -0.53199394461904
  C   -0.54628056165633      1.13568345139304     -0.02927191357696
  N   -1.17207311276580      1.95430010704203      0.87053497705111
  C   -0.42980638306959      3.03568522795496      0.91631358079778
  N   0.64349542701381      2.96991286344713      0.09171685444430
  C   1.54395543399077      4.02340501509444     -0.20681158747038
  C   2.88854134040925      3.94356964359451     -0.25936485545003
  N   3.81936942587328      3.03543973169992      0.12069464568461
  C   3.83844661950970      1.72778596515227      0.09170798896986
  N   4.83814497223267      1.18232420661799      0.86249180490707
  N   5.21963063627908     -0.13265224592068      0.99845138349660
  N   4.42692248784495     -1.00235820361728      0.38749746864456
  H   -0.90946132802710      0.14974793703861     -0.26952299115109
  H   -0.61359279224718      3.90468174342374      1.52871337991392
  H   1.06763734023335      4.95231518222440     -0.48710714625798
  H   3.33904736835700      4.88557599093724     -0.57270337480365
  H   5.42076647979461      1.83809805084812      1.35640627855948
