17
Coordinates from ORCA-job 19006optt
  Br  1.01306186337751      0.17347879851442     -0.02454748857591
  C   2.93941245103031      0.07237673683990     -0.02642194202778
  C   3.49195459470117     -1.17554101427309     -0.02730177875875
  S   2.65999441226133     -2.75120317372495     -0.02747108876365
  C   4.23853543561850     -3.48296607901878     -0.02812012564901
  C   5.29176114918286     -2.60925603117872     -0.02847895333581
  N   6.48146869554516     -3.27483003075523     -0.02888174744472
  C   6.14713738228845     -4.54304198175910     -0.02869023198442
  N   4.79055181719242     -4.73303697769950     -0.02835278884971
  N   4.90371258084186     -1.28546645198673     -0.02827581434097
  C   5.72521253814574     -0.10413127944487     -0.02841169098967
  O   6.94814660650463     -0.24082760740704     -0.02933300201399
  C   4.97656889769697      1.09322224554911     -0.02779778570397
  N   3.61189650392835      1.19684474565960     -0.02667946596296
  H   6.83389538910159     -5.37359223945143     -0.02886225102634
  H   4.30855785839737     -5.61317995672765     -0.02830788365057
  H   5.54413182418576      2.01315029686407     -0.02806596092177
