21
Coordinates from ORCA-job 19017optt
  Br  1.43283871461334      1.22654540044329     -0.00943965754016
  C   3.25180533148685      0.74200180583116      0.00934677306068
  C   4.24550222257511      1.64267952036505      0.01549225782734
  S   4.12394446198143      3.39703240202449      0.00468035243361
  C   5.86692309704014      3.51681816678196      0.02260305082859
  C   6.47973843025524      2.25859929656407      0.03666297811490
  S   8.23078153429130      2.35890092349883      0.05711614061774
  C   8.13988848476740      4.10091669032660      0.04823281983435
  C   6.81530507778669      4.54986043048767      0.02897685582417
  N   6.88641764352892      5.90313013329223      0.02326655115175
  N   8.16682828003009      6.35588468363539      0.03850333700666
  C   8.92231736004169      5.26436265419320      0.05341799312205
  C   5.60922702345314      1.16148550791192      0.03392178255042
  C   5.82168465981234     -0.22045153792243      0.04653758378496
  C   4.73842981948513     -1.13798793046569      0.03939747761853
  N   4.72457921557319     -2.42090009125439      0.04915967500404
  O   3.43922555722877     -0.59438730307931      0.01740889510313
  H   6.13375837706189      6.56541525436672      0.01177764784486
  H   9.99562336212435      5.36635099423386      0.06766283312027
  H   6.82117752176642     -0.63156080795408      0.06363056218304
  H   5.68500382509652     -2.75069619328055      0.06464409050905
