19
Coordinates from ORCA-job 19015optt
  Br  1.01760880875548      0.44549700542792      0.13370348125757
  C   2.87026948758204      0.09676969090465      0.10605667970799
  C   3.36195783452987     -1.18137345067407      0.10074581652635
  S   2.17211461477704     -2.48551363215907      0.11902540787024
  C   3.24840594293465     -3.84419167229320      0.10403331321691
  C   4.60613231334071     -3.72888980717495      0.08623666649278
  O   5.25493773113155     -4.96525346820371      0.07841578098909
  C   4.41513250397437     -6.01974098851446      0.08958897195271
  N   4.76081339874986     -7.23163755452820      0.08560723628862
  S   2.72108457192721     -5.50553444578901      0.11184904665058
  N   5.36267028835110     -2.66213798568985      0.07560660975401
  C   4.76277743151824     -1.44831043784960      0.08170138265738
  C   5.66564261862577     -0.30746096281683      0.06873615080014
  O   6.86658589060019     -0.34211197748079      0.05655259711530
  O   5.08701860689814      0.95203635206734      0.07026000761466
  C   3.74493987009356      1.23582778596764      0.08760585361531
  N   3.35975560380363      2.44920844608425      0.08616089917930
  H   5.77672182197823     -7.30006808147535      0.07281822062392
  H   4.17643066042833      3.05588518419730      0.07029587768715
