23
Coordinates from ORCA-job 19028optt
  Br  1.08916990007133     -1.33950245195926      2.47038908167974
  C   2.22499465469937     -0.75978834518504      1.04198668312398
  C   3.33910478937138     -1.55966424134848      0.61599817327405
  S   2.92327767475926     -3.23750476095941     -0.01317930273719
  C   1.45495910200826     -2.68057455375992     -0.83767907508482
  N   0.25608727275410     -2.88552063146563     -0.30865362750211
  N   -0.44998326152633     -1.82054873358018     -0.74989017897152
  C   0.35762357509521     -1.00152895655557     -1.44768256360406
  N   -0.02834097953814      0.30903065294514     -1.75134826224633
  C   -0.03153346367620      1.31066878338317     -0.72110341141333
  N   -0.68285063069090      2.39943456356615     -0.85932560052665
  N   0.64426829314998      1.03268094030849      0.44208581260470
  C   1.94582716014204      0.42032106015140      0.39580351634517
  C   2.92673420461921      0.97881487230118     -0.43794644240037
  C   4.13587054244128      0.28242605695436     -0.54982935505310
  N   4.34465579404941     -0.92591174613590     -0.08461664726342
  N   1.52331424895007     -1.55692105425069     -1.62455239239414
  H   -1.35228174274940     -1.60745693324912     -0.35902427488226
  H   0.41033840382120      0.65319299385376     -2.59408507220143
  H   -1.26212661647383      2.34412068242335     -1.69196246388164
  H   0.47588305142453      1.73315030337853      1.15026432874287
  H   2.73838038270413      1.89911675075620     -0.97442353329073
  H   4.96662764459399      0.73896474842749     -1.08522539231741
