23
Coordinates from ORCA-job 19022optt
  Br  1.95045642006315     -0.70845579233011     -1.35034818837934
  C   3.39117224187169     -0.46110012029818     -0.15725729790376
  C   4.08831882134356     -1.46273368203170      0.39483644226274
  S   4.28758868555949     -3.16482785129227     -0.12602816132626
  C   6.08093601421678     -2.93825257470010      0.12187023926905
  N   7.04776818649450     -3.14270740907771     -0.68977146275558
  C   8.14175380259526     -2.20941499719882     -0.22663275502952
  C   7.54588255816739     -1.31767258666130      0.87461622364956
  C   6.30111585528350     -1.96148724429342      1.14637817252834
  C   5.26216318688146     -1.05078343086655      1.13363737790212
  C   5.79770657460391      0.21156000423680      0.94527665370238
  N   7.21438926211453      0.09056772700372      0.81948659460021
  C   7.80369781174365      1.06490898046479     -0.07828644412897
  C   6.97261807575295      2.36043426617498     -0.03077411429974
  N   5.56401664345870      2.18793825548499     -0.39085327536812
  C   5.08286586421586      1.15439817707558      0.18575993043755
  O   3.71548370583577      0.85046592115835      0.01714663112792
  H   8.48173653378801     -1.63851781171574     -1.09702238997516
  H   8.99208571003881     -2.80299205142250      0.12003377653182
  H   7.80373852476460      0.69069720506540     -1.11194428310161
  H   8.83976674872808      1.26899601484349      0.20790207202373
  H   7.41504238247908      3.08368230210375     -0.71688798933553
  H   7.04869638999918      2.77429669827657      0.98386224756816
