22
Coordinates from ORCA-job 19024optt
  Br  1.54230106070625     -0.04577008822817     -0.42083009417644
  C   2.00567823911710     -2.49928754208788     -0.09448320758268
  C   3.33130551178350     -2.66534579432262     -0.02566984664029
  S   4.72037725815955     -1.54457061340183     -0.09720243988340
  C   5.90314256340468     -2.86800309824082      0.08813636428382
  N   7.15117689406197     -2.70150472775206      0.13999010804676
  C   8.00922788545246     -3.84615005081214      0.38069536681148
  C   7.66219424998446     -5.16307837823165     -0.31278193737646
  O   6.67233063922461     -5.94586081799843      0.35553096869322
  C   5.43073737335440     -5.45738015624173      0.28331914532523
  N   4.33603112550117     -6.14524657614482      0.30994957138728
  C   3.30295700951957     -5.20437814100399      0.21691667864529
  C   3.84450725905136     -3.96277270262923      0.12523922391285
  N   5.20169419846493     -4.09164697686480      0.17759355465463
  C   1.87121640001323     -5.39390245427295      0.18147041566279
  N   1.19450265752856     -6.46905863998983      0.25350180587593
  S   0.93796084102844     -3.83857081493664      0.00057237861362
  H   8.07274827833107     -4.03640550206879      1.45849819048194
  H   9.01324062136722     -3.56930209649395      0.05252507687778
  H   8.54604168562651     -5.79831557546650     -0.32404737380144
  H   7.34606837305930     -4.97923058246610     -1.34424374451581
  H   1.83155987525949     -7.26021867034495      0.35331979470390
