21
Coordinates from ORCA-job 19029opt
  Br  0.87950227835174      0.29257517657600     -0.88564253569871
  C   3.00243975594418      0.04903222350487      0.20153068476076
  C   3.61459321687656     -1.17055006725087      0.13105297531995
  S   2.88415741701664     -2.76129009919077      0.12451873367489
  C   4.47195946427752     -3.47898757448046      0.04803221983071
  N   4.61911417728067     -4.75011125192339      0.03502921072048
  N   5.91608823071524     -5.19251540994802     -0.05134388077484
  C   7.03534236640399     -4.45110554458096     -0.11361452866157
  O   8.15265415910950     -4.92911923471147     -0.18594588558455
  C   6.83561894749195     -2.94702385253269     -0.08396159843689
  N   7.82370558204369     -2.16895432199324     -0.12385212972436
  N   5.49625534648913     -2.53629867901953     -0.00693231759695
  C   5.01707647638242     -1.19569037125481      0.02250737834913
  N   5.80104768919434     -0.17010504842442     -0.04865641776584
  C   5.21032356275513      1.07701465479489     -0.00931747325053
  N   5.82748078429880      2.19635573806969     -0.07768067630145
  N   3.81051451559738      1.11513043548848      0.13392633653056
  H   6.01890438276746     -6.19509760616836     -0.06481054842614
  H   8.65524497151060     -2.76109568469251     -0.17944678654567
  H   6.81999107482609      2.00217997559559     -0.17057063918539
  H   3.40998560066659      2.04265654214207      0.15617787876643
