21
Coordinates from ORCA-job 19031optt
  Br  3.02105682980175     -2.76421055932672      1.78197403430569
  C   3.84364922432650     -2.03092033177704      0.25671712979088
  C   3.60536555688062     -2.41030159855090     -1.00246356754079
  S   4.46300070565152     -1.47001107335712     -2.25567153974186
  C   5.98033823489697     -1.26254874752961     -1.39964146256493
  Br  7.57523657003478     -1.38908111585167     -2.40364375878039
  C   5.99582869515980     -1.27154206433692     -0.07015871387683
  O   4.75943154453386     -1.07914190030823      0.56726676805058
  C   7.04410390777261     -1.91781739196109      0.83030098848948
  N   7.92941170625185     -1.28327110749028      1.49703395346533
  N   6.73097718017304     -3.23877402439343      0.92219855622039
  C   6.50949141957014     -3.95345430332855     -0.17987026043274
  C   5.32310385307666     -4.65488859161756     -0.39282546292053
  N   4.97243092927775     -5.03995715635198     -1.61229141995907
  C   3.68924317975398     -5.08064014208605     -2.00505074964103
  N   3.08750637544012     -5.90275133781891     -2.77211643823218
  S   2.54168045023185     -3.71034672565897     -1.49927024582091
  H   7.83341118238249     -0.28718642387780      1.31603056520675
  H   7.14969613992252     -3.84702497213478     -1.05789830608921
  H   4.62630139796114     -4.72700429481940      0.44395294313998
  H   3.72673491689994     -6.67112613742293     -2.97557301306859
