23
Coordinates from ORCA-job 19038optt
  Br  6.57090793923031     -1.34434339905463     -0.15482482581737
  C   4.71060047328202     -1.78147459782937     -0.30270189598822
  C   4.34073729881557     -3.09265120414173     -0.50723241488951
  S   2.60410065415753     -3.34187724247169     -0.33252592102363
  C   2.10696535245631     -2.08981757337283     -1.50227776195915
  C   2.62700994572740     -0.84309536950402     -1.19478158682132
  C   3.80300870410932     -0.68732936389045     -0.40126902877977
  C   4.18566815095869      0.63190079309523     -0.03487573584826
  C   4.46249730200510      1.76312023114855      0.27413785229422
  C   1.47205523300592     -2.51247850761730     -2.68763892076278
  N   2.07979284433556     -3.68695913077972     -3.26675020557526
  C   1.65638984996409     -4.96170905515052     -3.08635682494175
  N   2.37405904964977     -5.96701239471459     -2.68825255920212
  C   3.52872475395872     -5.65475639329551     -1.97416525814635
  N   4.37626590671951     -4.74395849394813     -2.23183488084220
  C   5.14414280341043     -4.14633100207559     -1.19726076541556
  O   6.30830079220081     -4.39976937103010     -1.00153433422988
  H   2.28755629428146      0.03434346625035     -1.73781714227090
  H   4.72984213872479      2.75416793369788      0.54584133219406
  H   1.06635592030480     -1.78545262599595     -3.38253712999401
  H   3.09551723103535     -3.65260294277224     -3.17654659546687
  H   0.59999700644528     -5.13848954024190     -3.28892096225432
  H   3.59350435522122     -6.24442421630571     -1.05387443425903
