20
Coordinates from ORCA-job 19036optt
  Br  11.02137985546065     -0.33655922896218      1.60262937492819
  C   9.57553413657742     -0.22414710538509      0.41163901324998
  C   9.59563634283893     -0.75429682789831     -0.85971268808266
  S   10.94293078896638     -1.64681320744545     -1.51140063951088
  C   10.12867372642417     -1.84097033533846     -3.03791041123403
  C   8.90377726761626     -1.26603140474890     -3.08508266684345
  N   8.15376934287196     -1.33193982947205     -4.25014358979203
  C   6.94185714548790     -0.88581965554049     -4.38617862022928
  N   6.02908908693256     -0.27891834398047     -3.59055282672348
  C   6.21456944166763      0.06670205899134     -2.32282292108212
  C   7.31877795995883     -0.08066916927049     -1.47813349438709
  N   7.14957200636144      0.29081859397337     -0.13512433693997
  S   8.37231806788525      0.94419088113096      0.77629448118174
  O   8.72360223815245      2.24627480286476      0.27684477786898
  O   7.92879709967428      0.87848000547030      2.14104663814075
  C   8.55715313803655     -0.64450788877592     -1.81519202895023
  H   10.59593608973219     -2.38128696915026     -3.84419845009891
  H   6.54495205573283     -1.03650817244664     -5.39060728690807
  H   5.35143294327315      0.54837303080991     -1.86101726934131
  H   6.24824126634906      0.66962876517405      0.12662294475391
