21
Coordinates from ORCA-job 19034optt
  Br  1.07751676104950     -0.22837288804734     -0.50282507450374
  C   2.97126174273771     -0.07399839965723     -0.21912356224731
  C   3.58986265628941      1.16400849795810     -0.28614993520453
  S   2.59779435049434      2.56696069711207     -0.67335013861405
  C   3.70127776598096      3.85425484146956     -0.38565986178856
  C   5.05051374979496      3.73674900650060     -0.16786908515654
  C   5.79201796334218      5.00975645589355      0.08347016528504
  N   5.31129083581835      6.01233482608112      0.70616979638071
  N   7.08973830046199      5.12915731010538     -0.42093160077002
  C   7.80924976312496      4.08180417368094     -0.51956884224677
  S   7.46352760202656      2.42426655184037     -0.16228549997527
  C   5.70975704935749      2.48772313534021     -0.13393452589485
  C   4.98727837366932      1.24443806845603     -0.09105756500997
  C   5.70365656376061      0.01204509258611      0.18828460215385
  O   6.93752107115941     -0.01915997491575      0.39824376883301
  C   4.90008441400615     -1.17569894379484      0.21139917761473
  N   3.60272196076688     -1.20833286709421      0.01706863143051
  H   3.23989803243979      4.83043172661593     -0.44194757560287
  H   4.38620274086486      5.78224864171387      1.06217985254018
  H   8.83794274381493      4.20460519502944     -0.85869024691714
  H   5.40788555903960     -2.11522114687394      0.40257751969359
