24
Coordinates from ORCA-job 19040optt
  Br  3.51460178059293      3.53300021915004     -0.10649999384453
  C   4.73251632697425      2.11252287869587      0.32125953031437
  C   5.87211721987061      2.38110692209376      1.02391469875523
  S   6.83003746980774      1.00849040828176      1.56945698181712
  C   6.70932659816727     -0.02009126790921      0.11678584235299
  C   5.40495049974438     -0.11339409484891     -0.40131461516084
  C   4.41767022812952      0.84834298847406     -0.21473093043563
  C   7.77902399797516     -0.70651843615896     -0.44014155997273
  C   9.21250110894328     -0.61349918524486     -0.31192899479429
  N   10.05899812789351     -1.34442057687211     -0.96478262276862
  N   9.77627437996061      0.32990301193380      0.58070827946627
  C   9.51715644656956      1.56102717083582      0.43462243452538
  C   8.74662352039035      2.14812750787170     -0.69086225033709
  N   8.07031320033770      3.22343313995654     -0.65753922986601
  C   7.99877702046908      4.05014252125163      0.46566482961753
  N   8.83412821566736      4.95422682575822      0.77495748043752
  S   6.50415366002403      3.96224629447224      1.43228550625909
  H   5.20369213339062     -0.92206625465717     -1.09845284321238
  H   3.44436647273244      0.70616427213955     -0.66134077531739
  H   7.48010442124327     -1.43841388512286     -1.18771882488698
  H   9.54627511097796     -2.00398702808192     -1.54681118421092
  H   9.87357534391326      2.26072262272022      1.18985397248585
  H   8.75572396325036      1.59032646864204     -1.62527433089995
  H   9.60109275297465      4.95960747661873      0.10288859967603
