23
Coordinates from ORCA-job 19042optt
  Br  4.68920059051905     -5.81273255448729      1.75395897579198
  C   3.12961994055401     -4.71533497381294      1.84305834219951
  C   2.02450454478481     -5.18842203146743      2.49444238319800
  S   0.60863819195244     -4.00855356783736      2.37791195926936
  C   1.62527204654178     -2.82172050572967      3.19478585256148
  C   2.70731651352140     -2.35025356753538      2.29409039999932
  C   3.36997543344200     -3.29998382310376      1.60091421336510
  C   1.77479598460472     -2.78244634582011      4.52823132237234
  N   1.23193690583723     -3.58432744527031      5.53269505754284
  C   -0.02959827487408     -4.21203359917610      5.74389164917854
  O   -1.06094961876751     -3.60827960370925      5.53889594523062
  C   0.10470446291710     -5.57131858900702      6.31902491679965
  C   0.86742713806585     -6.51085041982340      5.59626459496015
  C   0.98002033017622     -6.17732712387101      4.22114542111278
  N   2.00103057114691     -6.20789434848021      3.38981563756019
  C   1.51446792191507     -7.61506773273163      6.22115223045816
  N   2.01609443088711     -8.50588604292768      6.75359656639172
  H   2.97549281250139     -1.30351379348755      2.21045689501461
  H   4.19204091463818     -3.02878762066306      0.95058532093123
  H   2.58259603037623     -2.15427470826213      4.89874677661383
  H   1.95260698956652     -3.98504494290000      6.11594970996637
  H   -0.45568275280610     -5.81231462418499      7.21337984868339
  H   0.12248889249965     -5.58463203571158      3.92600598079874
