22
Coordinates from ORCA-job 19052optt
  Br  1.04641791732691     -0.08477241447191      0.20985113434511
  C   2.93907875997079      0.03248141421709      0.11351624465683
  C   3.69162002394178     -1.09784784295184      0.06714783285470
  S   3.03283312473090     -2.71356393470429      0.10742505371208
  C   4.60189526115548     -3.41312910043244      0.09497410909105
  C   5.61276932567344     -2.46486299246007      0.03457285442624
  C   5.13321101875211     -1.11404891299882      0.00786141243981
  C   5.89311377961708      0.06876377341889     -0.01667874434948
  C   5.40559724929998      1.38349394521655      0.01941348777178
  O   6.02779925868468      2.43616502321491      0.00216500736204
  S   3.57578385849206      1.64109951488249      0.10039319018070
  C   7.00694765148003     -2.89479550048711      0.02838429536705
  N   7.96378524448906     -2.09760814800235     -0.47065432855321
  C   9.20691873722663     -2.55513352410993     -0.47830350940987
  N   9.64487612493500     -3.73337497337788     -0.04982600158327
  C   8.69530756728289     -4.52430247000938      0.46166703876784
  C   7.37277947243723     -4.15827782017834      0.53091474775556
  H   4.70232710603814     -4.48298815673873      0.02772086725299
  H   6.96732735758452     -0.00292773203200     -0.08706402833937
  H   9.95553145132095     -1.88334258551188     -0.88771703311918
  H   9.02304202468099     -5.48883389919140      0.83767034767340
  H   6.64103768487929     -4.81119366329158      0.98356602169720
