25
Coordinates from ORCA-job 19059optt
  Br  0.92311310617285     -0.04595662428877     -0.38593185127453
  C   2.79268527804529     -0.01065895709720     -0.17856996264023
  C   3.49012746597072      1.19684516570198     -0.11651978461621
  S   2.85912810950921      2.80446347785867     -0.18751107644008
  C   4.44811264312168      3.49102650246349     -0.07587418917899
  C   5.41291408742747      2.54140825287197      0.01482310083398
  C   4.89457918175765      1.20740760192851     -0.00533868979459
  N   5.64556500641272      0.09691946938945      0.05928409539244
  N   4.88972033037571     -1.06025789672171      0.05749547868683
  C   3.52405417968240     -1.22860856625080     -0.12032096456061
  N   2.95613639617406     -2.40316391983529     -0.21044731902096
  C   3.76733093951613     -3.57376819685057     -0.15019113942563
  C   4.16566596134904     -4.01360020501947      1.27303311748633
  O   4.33572165023805     -5.44142338195295      1.21642554786592
  C   3.66358100452688     -5.94962222472598      0.15992500145403
  O   3.63889496073704     -7.12559849963597     -0.06496840392916
  C   3.01057829106012     -4.82197007731707     -0.60131913718659
  H   4.56705362836947      4.56199458922351     -0.08268772195824
  H   6.47030595273897      2.75319018229508      0.09360382175243
  H   5.46578063298965     -1.88117946006452      0.04271709178084
  H   4.68859062157355     -3.51366196953097     -0.75736396637635
  H   3.35212133056354     -3.77398846041945      1.96099367025200
  H   5.09458875494991     -3.58465773344093      1.64355447873664
  H   1.97116089736537     -4.73158360301589     -0.27367678210724
  H   3.02148958937248     -5.01255546556509     -1.67113441573205
