20
Coordinates from ORCA-job 19056optt
  Br  0.91785818551871      0.10640497591146      0.02660700858959
  C   2.81509372934834      0.16405238771151      0.02331253728195
  C   3.53576426039506     -1.02217616064744      0.02239508964441
  S   2.95852047586142     -2.64901304873766      0.02288821505750
  C   4.57768814575932     -3.26700597814947      0.02098689267533
  C   5.50995953513396     -2.27787187153290      0.02011752091534
  C   4.94459746366836     -0.96713299633729      0.02084068942053
  N   5.65339884721867      0.18430636387116      0.02016912767774
  C   4.96678832507869      1.32578362592968      0.02069265339111
  C   3.51518909252939      1.38701199810697      0.02215861025587
  C   2.94363712468730      2.66315661704166      0.02221840560493
  N   3.66201411809501      3.79197864678705      0.02134601058557
  C   4.98293925618994      3.62486519072750      0.02043999955612
  N   5.66725293163632      2.48606988178521      0.02004092186942
  C   5.77066744548106      4.84138402200235      0.01997038629367
  C   6.42261600764783      5.84935893310020      0.02025648139703
  H   4.73800704814180     -4.33257369248109      0.02067314865233
  H   6.57801563189282     -2.44393036413115      0.01895351314096
  H   1.86544412882228      2.77150130792329      0.02300325275803
  H   7.00354824689371      6.73883016111898      0.01992953523257
