25
Coordinates from ORCA-job 19050optt
  Br  1.17334966936478     -0.72733477361599      0.21189160066524
  C   2.98793033013545     -0.23589766435285      0.05635734819589
  C   3.41503445648733      1.04370629589580      0.12484158465631
  S   2.48799270955591      2.49853856124375      0.38276707628682
  C   3.94520298289410      3.47871445400172      0.32513811260205
  C   5.06503990982880      2.70592255322630      0.08402473427292
  C   4.82450510582176      1.32309551467802     -0.01884399165575
  C   5.71468687585389      0.24796698554957     -0.21493347261447
  C   5.26211596157114     -1.09391045080166     -0.29172010577071
  N   5.93023443928443     -2.19963978928314     -0.47009754128232
  N   3.87390201337890     -1.27077306201155     -0.15696585831184
  C   3.82722240294407      4.93639646135798      0.31824827347602
  C   4.23819174807765      5.80716235536622     -0.85377550639750
  N   5.03585140370501      5.73314895256153      0.34856655301353
  C   5.16977464543097      6.82825203271335      1.18571671503817
  N   4.90985225740976      6.89521212908144      2.42353898046198
  H   6.05016259719608      3.14773265334793      0.00046580510521
  H   6.77688829195793      0.42664489195792     -0.31425251488787
  H   6.91639807529298     -1.97490588072636     -0.55704105386984
  H   3.55295209589081     -2.22350238847691     -0.19065295207997
  H   2.99607525032481      5.34951051057023      0.88849905992529
  H   3.68071441954575      6.72370676037315     -1.02524994797671
  H   4.65957936088243      5.32236201195444     -1.72527926603552
  H   5.60281367004916      7.69733607438981      0.68593358794285
  H   4.52152932711606      6.00655481099926      2.74782277924023
