25
Coordinates from ORCA-job 19065optt
  Br  0.92633383788034      0.21985492034268     -0.14712556064906
  C   2.81066609646379      0.14838648109860     -0.06112023978275
  C   3.46462487735182     -1.08170568459608      0.01157910451336
  S   2.78081895420844     -2.67095121233826      0.06490198309148
  C   4.35264007806873     -3.40508969155886      0.13031859722519
  C   5.35866978431614     -2.48823865162717      0.11186350944655
  C   6.81345582850357     -2.79927843561741      0.14050944393269
  C   7.65162562212660     -2.38296392404813      1.38017817824359
  C   8.47605647001513     -3.67316270730619      1.19055389002909
  C   7.29901018339910     -4.24495422169900      0.37193501230423
  C   4.87355433786533     -1.13807477259967      0.04809690813233
  C   5.58221676427344      0.05145645187200      0.01271064115395
  O   4.92455484157280      1.26774821573475     -0.03928693240444
  C   3.53833833236419      1.37004538524674     -0.08876679873999
  N   3.03059304431280      2.54850005459393     -0.15343681334657
  H   4.44080151099462     -4.47928682787536      0.16561784641475
  H   7.29447389663516     -2.38768710007901     -0.75458584743698
  H   7.03234248834814     -2.42707385435280      2.27696479268731
  H   8.17208742473913     -1.42684960376863      1.35045507386382
  H   8.79305569062359     -4.21736512983332      2.08010300605192
  H   9.34592340233629     -3.49441470186401      0.55670487432935
  H   6.60033402864268     -4.77728685032426      1.01962860817072
  H   7.52183285871036     -4.85980158135342     -0.49966621937494
  H   6.65372596659509      0.16206130922790      0.04631204769229
  H   3.78926367965263      3.22513213272500     -0.15944510554791
