22
Coordinates from ORCA-job 19061optt
  Br  1.15668792930835     -1.07853775635850      0.31242460554897
  C   2.96782591250268     -0.57849805544194      0.15320306816496
  C   3.35982486242486      0.76325422531955      0.01842765899348
  S   2.40571407938315      2.20816301985286      0.01054139271081
  C   3.84409553087907      3.22989569831940     -0.19764849134760
  C   4.98723159840275      2.43550698542328     -0.25114801263694
  C   4.70654443012541      1.07885807966101     -0.12792190789459
  O   5.68851824534926      0.12084820221627     -0.15258454562945
  C   5.28412260058857     -1.18269434472225      0.00035284301881
  C   3.98677502115201     -1.54967712312639      0.14422872452736
  N   3.85901919384338      4.56256477198163     -0.29501665260453
  C   2.74159814830318      5.27992426636820     -0.24126332442180
  N   1.50083030262623      4.88297057981385     -0.08614446368984
  S   0.47515431721263      6.21901439239201     -0.09489419310123
  C   1.76142441883630      7.41091620358048     -0.32193862889015
  N   1.72683813312310      8.68444240437822     -0.42737682331427
  N   2.90038873275237      6.66285492366289     -0.36828005628986
  H   5.97334658453650      2.85510461424926     -0.37489390565774
  H   6.11749714048661     -1.86641831470585     -0.00984912750486
  H   3.75661359414091     -2.59995218434489      0.25461905109360
  H   0.77259789099848      9.02358084977620     -0.36532189897312
  H   3.80935133302415      7.07387856170468     -0.50151531210199
