24
Coordinates from ORCA-job 19069optt
  Br  1.18680456791396      0.06835529653893      0.38475441422248
  C   3.05435288900175      0.09761529071952      0.13689854177050
  C   3.72606791825613     -1.07142446777346      0.18988117750051
  S   3.11950620648746     -2.68222258799387      0.50524292490722
  C   4.73986707403458     -3.33608389993643      0.42425230218603
  C   5.63183826235769     -2.35998481483935      0.15587200476019
  C   7.11009501033322     -2.50281434331634      0.04709127502329
  C   7.89581282939924     -1.78025854146127      1.16619455385746
  N   8.90696873458510     -2.78221690066804      1.44439950168138
  C   8.54011058290329     -4.01897435137532      0.99547413640685
  O   9.05475692591852     -5.07460536043621      1.23928387466272
  O   7.46955783651496     -3.88163259847462      0.17884686986364
  N   5.09211903670386     -1.10911159306382      0.00202726608432
  C   5.78690149685416      0.12393534990111     -0.17580560281515
  N   5.10716972283093      1.26596452588680     -0.39887347088156
  C   3.76816480656277      1.35710980835309     -0.17898994052685
  N   3.08006813138232      2.45288055020016     -0.24750760783956
  H   4.94706196758540     -4.38221063258850      0.55419919191450
  H   7.45617152463707     -2.15543710064835     -0.93262361937511
  H   7.25237876768630     -1.57469117798583      2.02447461160589
  H   8.32478875029644     -0.84419939965615      0.81923697509505
  H   9.51151230370543     -2.74078303808021      2.24633423579374
  H   6.75746487841140      0.00547296369322     -0.65159203701674
  H   3.73845977563790      3.19831702300495     -0.47007157888079
