20
Coordinates from ORCA-job 19060optt
  Br  1.03181655332707     -0.19655403635423     -0.27694273205761
  C   2.90712240968055     -0.19109293611207     -0.09289092702857
  C   3.62549400916193      1.00454195737767     -0.01140607212036
  S   3.02194866868949      2.62281882600582      0.03065243680631
  C   4.62954720971414      3.27132536829962      0.10201897747711
  C   5.57857825742087      2.30504229723337      0.09260190327174
  C   5.03039921014203      0.98006441649112      0.03077059750554
  N   5.77065122481243     -0.13233110295984      0.02618115595359
  N   5.01659236026945     -1.29710967805922     -0.00158835556898
  C   5.77845606058603     -2.44705252967960     -0.04118267402750
  N   6.83212061129280     -2.68639831908699     -0.75310090145907
  C   7.23607452777153     -3.94405339867112     -0.34915722890968
  C   6.38602456859989     -4.40434641507082      0.58957091215151
  O   5.45598324561207     -3.44165909486251      0.81064132917876
  C   3.59193494771406     -1.42835199745256     -0.13843404002319
  O   3.11234801987723     -2.54565720294127     -0.28693002158524
  H   4.77020003026783      4.33887644723224      0.14647753757751
  H   6.64271322790024      2.49115446907386      0.13022170792476
  H   8.09698540981227     -4.42984968790115     -0.77660368818577
  H   6.29100944734805     -5.31736738256229      1.14810008311915
