22
Coordinates from ORCA-job 19071optt
  Br  1.01686711242868      0.21459934036533      0.10181563785151
  C   2.90382403817334      0.15969876752027      0.08241371698560
  C   3.57675710302715     -1.07018204959135      0.07510260222886
  S   2.86901888836283     -2.63660277235446      0.07427424187549
  C   4.39928723580385     -3.41691339986902      0.06599846585755
  C   5.44251010842075     -2.51550997947102      0.06378044104639
  C   6.82993655027541     -2.93825673019509      0.06159536360416
  N   7.84832902292111     -2.07788579494005      0.06171206751483
  N   8.95439882631931     -2.84092188492924      0.06183893185038
  C   8.68151886463467     -4.16361917563814      0.06161961585011
  C   7.31897031184621     -4.27724915886901      0.06146658560791
  C   4.99425648959722     -1.14702778326497      0.06743419142373
  C   5.71270700653512      0.04351556124082      0.06520685794900
  N   4.99844004671448      1.24275736054998      0.06983913575508
  C   3.61252503180643      1.39249676085168      0.07970485483387
  O   3.13694655153351      2.53312066009369      0.08513712354553
  H   4.45247009912286     -4.49281127773703      0.06473757986930
  H   9.85357241938539     -2.39662988809038      0.06251658963095
  H   9.46443749533936     -4.90348986863658      0.06198411962071
  H   6.74338205050722     -5.18638342634908      0.06166160754253
  H   6.78600023465149      0.10107399427270      0.05975814040156
  H   5.48984451259358      2.12022074504099      0.06740212915494
