26
Coordinates from ORCA-job 19073optt
  Br  2.79800371156962     -3.44005449936786     -0.53409235018219
  C   2.77062542681205     -0.66025739075485     -0.02004351734774
  C   3.31522390530274      0.55346464366679      0.44470749917488
  S   2.13486705641551      1.73103078500295      1.02822045967180
  C   3.13187224843112      2.95857614955053      1.78910740764210
  C   4.50063415641187      2.92014415651638      1.75907884592011
  C   5.26389516050867      1.92684322293906      1.14242250442504
  C   4.67025768663222      0.81368151901794      0.51494494494118
  S   5.72780934211449     -0.33081694613237     -0.30497327807290
  O   5.82794209123810      0.06178010595460     -1.68869600414519
  O   6.96740566551139     -0.41527100636725      0.42311204258715
  N   4.94204298779760     -1.73916503558205     -0.20270263908704
  C   3.64302861740207     -1.70966588237504     -0.24029557376813
  C   2.33106978267340      3.98103435965628      2.51618872728312
  C   3.00458903673796      5.26190441280695      3.04074274232832
  C   1.77977283462900      5.99949824871148      2.47511036566940
  N   1.37113790550759      4.80192714996682      1.69369321041534
  H   1.74124375836321      3.50007931799154      3.30599388359957
  H   3.90668435235898      5.50425886175022      2.48029120996722
  H   3.20401564321019      5.32795840377619      4.10961956952755
  H   1.96500797704109      6.89774618221362      1.88656042153469
  H   1.02781430056554      6.22549276253108      3.23373433840623
  H   1.75071017567088      4.86338695128557      0.75270458751761
  H   5.02951136238702      3.71531997269304      2.27259830047031
  H   6.34277655609678      1.97941780454158      1.16576374545631
  H   1.70405825861085     -0.81031424999326     -0.06479144393479
