24
Coordinates from ORCA-job 19083optt
  Br  1.04392594203059      0.66341187688366      0.01948421420433
  C   2.94683503254287      0.53169758948448     -0.07638834298009
  C   3.55178827946875     -0.74774786363916     -0.04650975627579
  S   2.47721297020561     -2.11077030357819      0.04933194178758
  C   3.54574926243149     -3.45431223426305      0.03155042278161
  C   2.84878409240011     -4.79578727971460      0.04522629607762
  C   3.30289813323819     -5.66552963928928      1.22673398699817
  C   2.81180427986809     -5.15840446462706      2.50502792403834
  C   2.38460208265024     -4.71193568097954      3.53188887466073
  N   4.82718083784426     -3.44276803260928     -0.00389204157309
  C   5.59035093797371     -2.27922997933296     -0.03300916818793
  N   6.87191781732603     -2.36743824035025     -0.02788860951168
  C   4.95672650849632     -0.93265356240546     -0.08452450046817
  C   5.81876905455104      0.13271756295469     -0.16830661535603
  S   5.37943711834503      1.79687918725695     -0.25868485415923
  C   3.57587833110497      1.79110336889194     -0.17439840222201
  O   3.05465886794235      2.89626497083919     -0.21252104152728
  H   3.10729093442655     -5.31473637095331     -0.88110479384407
  H   1.76591050168927     -4.66648868823749      0.07205604181058
  H   4.39414743179321     -5.68696119395255      1.23628539694649
  H   2.94767728427056     -6.68932787654456      1.08883520404013
  H   2.01456353309545     -4.30101040396756      4.43966038278957
  H   7.11015744705190     -3.35684669209169      0.00421366539284
  H   6.88073331925333     -0.06012604977489     -0.18706622542263
