31
Coordinates from ORCA-job 19082optt
  Br  0.64491228330055     -0.95015196611726      1.68926706341921
  C   2.25154866170591     -0.16536516408766      0.99240844794516
  C   3.10942665709513     -0.78456445239654      0.16431348087463
  S   4.54072484349624      0.17907631014502     -0.35284480379899
  C   3.83985763292618      1.70383946283306     -0.86630443444600
  C   2.74189419327950      2.22901682381170     -0.18456984097355
  C   1.70721634524403      3.08164567972575     -0.86772789455366
  C   1.12344311681858      2.50004911218094     -2.16813611339881
  C   0.50398079254755      1.11127593768645     -2.01727920867297
  N   1.48263352857352      0.05846519168449     -2.22217624501493
  C   1.00071940579157     -1.27588264721873     -1.93222644144228
  C   2.11070922802533     -2.28048229372852     -1.72110371332820
  C   2.01694554656640     -3.18038963821311     -0.52213212582095
  C   3.05157471782034     -2.08945954693244     -0.54882779033070
  S   2.40912620136350      1.59719310413090      1.36018781926901
  O   3.51971789826797      1.70953388709352      2.27586873427233
  O   1.11632105984393      2.05606917217876      1.83108432225910
  H   3.91377273959109      1.89597882919626     -1.93173404982386
  H   2.13553102128475      4.06405179279908     -1.10503246425445
  H   0.89310298096440      3.26020732580008     -0.16372196626940
  H   1.90002127818719      2.45531083961713     -2.93888283405563
  H   0.36400813404980      3.19595555070151     -2.53749708369217
  H   -0.36296850255427      1.01061692700833     -2.69405256874632
  H   0.12229261049518      1.00153233403906     -0.99517753433099
  H   1.91189211101243      0.12307114372711     -3.13687875927947
  H   0.30746405569502     -1.66507422175420     -2.69842365969452
  H   0.42142039833384     -1.20200192137034     -1.01206815908085
  H   2.55710578174964     -2.68790402264784     -2.62149195463513
  H   2.39580002616492     -4.19107247105563     -0.60184763069213
  H   1.14653173092240     -3.06898092623593      0.10376842463521
  H   4.04827352143733     -2.46356015260092     -0.75176101633867
