21
Coordinates from ORCA-job 19084optt
  Br  1.12506954175623     -0.23847482257360      0.12050808179120
  C   3.01320663669663     -0.20789965110997      0.09141834733962
  C   3.68132900826695      0.99243123182718      0.07292972333918
  S   2.93484822831519      2.55449367036640      0.06727610153690
  C   4.50842996781815      3.34196252311391     -0.01553304027992
  C   4.60778441810247      4.71828464096177     -0.06901896488068
  C   4.67620638286531      5.92991233762281     -0.12571398822324
  C   5.54566575377005      2.37830731099471      0.09155627309652
  C   6.85187868097443      2.71111507258194      0.44325549204506
  N   7.92528535463393      3.06936313879726      0.70571308428813
  N   5.04382181943171      1.05266840031445      0.05985506974781
  C   5.86329391327041     -0.11087946703760     -0.07476631403392
  N   7.12078672079128     -0.10431191788770     -0.27727809295783
  C   5.11925215278267     -1.36251364736877      0.03701775107701
  C   3.75153781476204     -1.39264837020093      0.10357646678147
  C   5.85109130840201     -2.58292822762965      0.02764333016079
  C   6.43322982048666     -3.63402401408079      0.02691703977635
  H   4.75470048317699      6.98752989910445     -0.17284773304337
  H   7.52876002759032      0.81931845869154     -0.34250943215515
  H   3.24113920948673     -2.34509846967338      0.15349055926037
  H   6.97168275661969     -4.54960809681404      0.02351024533370
