24
Coordinates from ORCA-job 19088optt
  Br  0.87145418753044     -0.17667688351196     -0.01763466648399
  C   2.75121481257626     -0.09087945988681      0.05815267350770
  C   3.44861280213800      1.06498887973349     -0.09940389402215
  S   2.81823004136150      2.65167408725591     -0.43751073498619
  C   4.41787866017585      3.32287834889459     -0.43524108934167
  C   5.38082140903159      2.38014331086332     -0.18940653311237
  C   6.85539119821965      2.70157675206929     -0.18510623435675
  C   7.14022163597715      4.11983097317756     -0.39417277033985
  N   7.37842124048088      5.23112251439268     -0.54893452563046
  C   4.87499130238938      1.06872489608565      0.02207390985832
  C   5.52149088627163     -0.16707448839382      0.30486390196197
  N   6.92146586280669     -0.26459610821566      0.54177298371365
  C   7.89612663494002     -0.32380186169453     -0.39258564403385
  O   7.78263785584113     -0.09945149776094     -1.57743114664962
  C   4.79028281141515     -1.37411443790857      0.49234571872639
  N   5.22786522970353     -2.57435527528826      0.74568877438931
  N   3.39500495430558     -1.25959410572428      0.42130917275011
  H   4.56819117700685      4.37305702279162     -0.62450326221095
  H   7.36117271266582      2.13491738263957     -0.97164614390934
  H   7.31373650897505      2.40947399962751      0.76181682581754
  H   7.21146024683288     -0.55368744715403      1.46914868482288
  H   8.87628344272994     -0.56653027449994      0.06067144646964
  H   6.24174420304885     -2.57996632755384      0.72360258994237
  H   2.90930018357603     -2.13965999993854      0.35812996311733
