20
Coordinates from ORCA-job 19085optt
  Br  2.76766133261281     -2.23459837238284     -0.04746431323180
  C   3.14336800605386     -0.41127629418032     -0.58803182021437
  C   2.36519094873259      0.62289177489592     -0.18974550981894
  S   0.99836679276273      0.25136940916956      0.93185568320486
  C   -0.04023369474476      1.62341241274010      0.58171678510587
  C   -0.14429717881103      2.71673899736086      1.33573459318966
  C   -0.55311547587220      3.98630575487681      0.70394490514327
  C   0.02507419974414      4.34048380706098     -0.45111492937752
  C   1.02157467632204      3.40467247477830     -1.11462076866497
  O   0.66988611581463      2.82419521482181     -2.14701281412080
  C   2.23264516471208      3.18386371656484     -0.39071165537107
  C   2.92501440528367      1.97269956689184     -0.26827606908358
  N   4.23901905313691      2.08047340263519      0.18194781906958
  N   5.15063856740662      1.29155777183735     -0.03113665020355
  S   4.69881353597171     -0.07328663477188     -1.20916946551831
  H   -0.46852460520676      1.62034265158272     -0.41260466541128
  H   0.27356120894959      2.73327399966846      2.33843820027464
  H   -1.27032980726356      4.64019976178678      1.19085755230224
  H   -0.26225095083234      5.25465182554643     -0.96134785445931
  H   2.64493770522726      4.02602875911707      0.15674097718538
