22
Coordinates from ORCA-job 19087optt
  Br  5.89252434708766     -2.93599901108566      2.11696099542430
  C   5.69568688857901     -1.47942447289819      0.93125501720255
  C   6.44507459151692     -0.36813169089639      0.98413948700664
  S   5.92894300757582      0.87541879933608     -0.19476935741699
  C   5.82772585553077     -0.25906491032462     -1.58147416832139
  C   7.13556773048882     -0.53561066321168     -2.06822946891128
  C   7.77052262385297     -1.70441018847377     -1.65342292794036
  C   9.00950584455454     -1.63895325605300     -1.03636581780770
  C   9.11222565819720     -2.43139799344202      0.14094399261384
  O   8.70727768047673     -3.53111077298616      0.40701100470786
  O   9.72600347372235     -1.66236800391673      1.19494465438959
  C   8.96932706877593     -1.33882663271192      2.26998475911363
  N   9.24540507969614     -1.70120775102803      3.44222819176213
  S   7.70623101801221     -0.02855221595552      2.17312006930759
  C   4.93664015077763     -1.37550855854349     -1.31988543532836
  N   4.34613027762575     -2.14369547536966     -2.13364498628879
  O   4.71268178795522     -1.69145536803641      0.03385495038889
  H   7.77185684298860      0.33024193537077     -2.22038453210669
  H   7.16564475337855     -2.58524884729360     -1.44967261273048
  H   9.54661338394022     -0.70014458610634     -1.03391190875442
  H   10.06244912225748     -2.31298110831901      3.40404686548291
  H   4.51796281300928     -1.79156922805461     -3.07272877179348
