25
Coordinates from ORCA-job 19098optt
  Br  2.83368812617182     -2.54641537190186     -0.30649111301325
  C   3.22953535579699     -0.71951766215724      0.04813734306182
  C   2.30653679042254      0.22802813748934      0.27385940122920
  S   0.58343925794568     -0.21860124011023      0.26590711568334
  C   -0.19525995641233      1.29219512280712     -0.13745115472006
  C   0.29131130269336      2.16000686972964     -1.02405115729958
  C   0.01862967968028      3.61865902300031     -0.96801106434734
  N   0.11849941843091      4.37923549747945     -1.98670165694101
  C   -0.35417015862703      4.19902924818269      0.37529514580690
  N   -1.29099862253829      5.12045277753680      0.36317898369504
  C   0.21592708501583      3.66348161292133      1.57943890935350
  N   1.21036907389924      2.79941140157177      1.73597490710029
  C   2.21512820746944      2.72612840013297      0.85791099571335
  C   2.83413847387743      1.59904330032430      0.36335513757075
  C   4.07526644208728      1.75278225709050     -0.36793821407795
  N   4.92516074049079      0.82368333239925     -0.59668367990612
  N   4.58935659101990     -0.40775278916735     -0.00354476764811
  H   -0.97392210571896      1.58278697566459      0.55519290620823
  H   1.06246880427055      1.84447679396410     -1.71969950887975
  H   0.34498940655379      3.81355477775492     -2.80717476491551
  H   -1.45519767072339      5.42562145045870      1.32506526780767
  H   -0.32804217894324      3.92954986181081      2.48704329565282
  H   2.61686795614600      3.67943852478884      0.49045495325893
  H   4.33879349786194      2.73241758936235     -0.75888439788646
  H   5.16148448312945     -1.14069589113316     -0.39018288250669
