20
Coordinates from ORCA-job 19095optt
  Br  0.95643739418567      0.07913106115884     -0.10055285603502
  C   2.86349548114241      0.03967875551371     -0.09944179845420
  C   3.58376954302189      1.18159949332685     -0.09879728470429
  S   2.63953149713208      2.68190153764626     -0.09859017005387
  C   3.83524523409711      3.90591148050913     -0.09859271228897
  C   5.15897451157621      3.70403314672404     -0.09840870139324
  C   5.98855992527316      4.87761122305808     -0.09855344919773
  N   6.55753451156098      5.87579246618331     -0.09866710261288
  C   5.80137656013295      2.38207600741923     -0.09802100324835
  N   7.13479903305210      2.44811208250625     -0.09752237055853
  C   7.80630585966626      1.27239987401182     -0.09708694613910
  C   7.20486465206649      0.05441381392427     -0.09719341920417
  C   5.77929221045466     -0.04597512960583     -0.09783578712319
  C   5.25315669829553     -1.35966364157839     -0.09812541675965
  O   5.88405199139514     -2.41522941551871     -0.09781899809465
  S   3.45082257152285     -1.59864349881062     -0.09931690948198
  C   5.04235148309480      1.19631315622550     -0.09817522393848
  H   3.42308593220224      4.90647521348192     -0.09877984936670
  H   8.88832375684571      1.35269740090300     -0.09663942119124
  H   7.78002115328173     -0.86063502707866     -0.09688058015374
