15
Coordinates from ORCA-job 190optt
  C   -3.17409906867050     -0.42961738110840     -0.00318707451411
  C   -2.33721853705504      0.70423581735374     -0.00171982707622
  C   -0.95961338475627      0.60174292796395      0.00307918620953
  N   -0.25919690570209     -0.58550554092643      0.00688522757697
  C   -1.07615524492648     -1.64916655978235      0.00552984542052
  C   -2.48859177786259     -1.69036853979991      0.00066504210500
  N   -0.63246548725520     -2.94512271629635      0.00889939789235
  C   -2.85644998974293     -3.06228328533853      0.00111002511560
  C   -1.70297261757125     -3.82522017969057      0.00629403147723
  H   0.34254491569108     -3.18214950434231      0.01301981435621
  H   -4.25322403557539     -0.35280793984946     -0.00725168449448
  H   -2.77257101177648      1.69903184590132     -0.00456356137329
  H   -0.35497829048681      1.50381041160494      0.00392901936327
  H   -3.86051992430535     -3.46030109373849     -0.00204331796308
  H   -1.55348864000469     -4.89127826195114      0.00835387590451
