24
Coordinates from ORCA-job 19108optt
  Br  2.00901577951738     -0.48007769819313      2.34963421351463
  C   2.54913510524882      0.48418960852368      0.81363662538208
  C   3.62510111777110      1.41279048497181      0.90036250915282
  S   3.43530265924477      2.72589391122466      2.12667493765461
  C   2.12120579635695      3.49859956953440      1.18677695419846
  C   0.92354316252160      2.92947181227506      1.04706244622830
  C   0.00680871731655      3.25980328402502     -0.09233664916908
  N   0.06076768254256      4.45273909141617     -0.57544692327006
  N   -0.87506360418760      2.30523281660798     -0.52347790132689
  C   -0.73741882078202      0.97792921624017     -0.43393722664145
  C   -2.09268037964754      0.31422127240780     -0.51727426111664
  O   -2.31877941721111     -0.86374155540395     -0.42368226897113
  C   0.32119083466724      0.10487729316692     -0.31145439571068
  C   1.70381391099511      0.54266957660104     -0.26569975256872
  N   2.17407943072053      1.20990377770163     -1.36373921404402
  N   3.38114039429523      1.80177956438622     -1.47909982208266
  C   4.06060571096117      1.89677226394611     -0.38103943198180
  H   2.40767068958315      4.31043626529948      0.52811734023428
  H   0.63383856642626      2.09791525006620      1.68155118018959
  H   -0.59642806124362      4.49733311830115     -1.35428606480376
  H   -2.90407852128788      1.05186932446362     -0.66315204673667
  H   0.08716748446391     -0.93157095958353     -0.11220750517909
  H   1.55627683556645      1.32827180634341     -2.15014513055029
  H   4.98478492616085      2.46069090567795     -0.45583761240185
