21
Coordinates from ORCA-job 19109optt
  Br  2.86488169443531      0.83495838788226      1.85690076759507
  C   4.68449717915559      0.23388247123992      1.11129322316482
  C   5.76752023898413      1.09451884153951      1.08219770859350
  S   5.13946819165952      0.82636589693242     -0.56088087278710
  C   5.67982900869583     -0.82519740140707     -0.94234018059628
  C   6.63463880984727     -1.13399427477415     -1.92242785808263
  C   7.86940632781324     -1.81790078505779     -1.61603073310114
  N   8.60787113743718     -2.55628647439258     -2.34261701928909
  O   8.42459085616026     -1.43647015158395     -0.37888988900949
  C   7.95073810612840     -1.92009592391391      0.78455443481416
  N   7.79580057309932     -1.21451239520996      1.81535004855252
  C   8.02223256952501      0.16167614883127      1.79109630913666
  C   7.16004708646488      1.15084419718336      1.50935925626868
  C   5.27470558800387     -1.74498243980653      0.07986108532461
  O   5.39537694192034     -2.94756304811277      0.10588516490725
  O   4.61632850239902     -1.13328065612880      1.15961217246329
  H   6.56474726961633     -0.72262401714947     -2.92467666007788
  H   8.11769332643084     -2.73501897703809     -3.21677290712084
  H   7.72221961883207     -2.98127793668259      0.79240140507171
  H   9.01796339461190      0.44885391327247      2.12272534095245
  H   7.57844357877954      2.14910462437646      1.60139920321975
