21
Coordinates from ORCA-job 19112optt
  Br  1.14553670333598      0.29447919061688     -0.15417230205128
  C   3.03226064830294      0.19763349218846      0.14089354516550
  C   3.69312946743995     -0.99540772258991      0.06335130823863
  S   2.96131061970243     -2.58035576721256     -0.04415638541899
  C   4.51238302846705     -3.36222609709021      0.11463307234045
  C   4.63369483087947     -4.84026988272657      0.05457884855153
  C   4.28519259267393     -5.62596682295167      1.30005119185902
  O   3.95738058680542     -5.18043752009541      2.36087984499202
  C   5.52433455979289     -2.45927365392068      0.21947600447929
  C   5.12310187221221     -1.09464097338894      0.15990473792287
  C   5.94556635470520      0.04022589963186      0.17742592110454
  S   5.26170673229521      1.50087212953529     -0.33966711151739
  O   5.06763480664592      1.56866792333838     -1.76592059798128
  O   5.89676650872538      2.62853108498917      0.30351889966011
  N   3.70499357282677      1.41372801151157      0.30652545721449
  H   5.66704405397277     -5.11971527985295     -0.18835441937969
  H   4.02510843736255     -5.27277111387503     -0.75188481439798
  H   4.36794839914420     -6.72734432533461      1.16149989956719
  H   6.56399367827889     -2.75708614200837      0.28879366598812
  H   7.01936519797502      0.02127233709959      0.27577564132882
  H   3.72554734845566      1.76808523213576      1.25984759233403
