21
Coordinates from ORCA-job 19117optt
  Br  2.42408258170039     -2.22367974475606      2.24431524379336
  C   3.13059024394606     -0.86587946109183      1.15207524557063
  C   2.64100579068627      0.38203032987258      1.09377638416714
  S   1.15119720974254      0.88035415154537      1.92175456532110
  C   0.65301625865317      1.91566596060676      0.57370257149216
  C   0.45496267444377      3.24991694334882      0.57764873765459
  C   0.94746849057250      3.95860448783289     -0.62332806501576
  O   0.38567994722746      4.87007136185913     -1.24090619885257
  C   2.31204007809934      3.44719871516722     -0.94201163724232
  O   2.96720780851332      3.62821937483697     -1.96637643661091
  C   3.03040651780130      2.77061033711102      0.23530682023886
  O   3.42995059907523      3.39582596968786      1.18809601352658
  C   3.35633835620743      1.29222762795064      0.19616266089635
  C   4.33844348803881      0.83170336462945     -0.59628548838953
  C   4.77520368096785     -0.55057108377654     -0.53683225727479
  N   5.64268809421116     -1.15436507862007     -1.23215090031058
  O   4.18926802104162     -1.31232715456499      0.45702980633927
  H   0.77443543049699      1.41364589507769     -0.37913766883507
  H   0.18088649002637      3.80541893833141      1.46827179736810
  H   4.84725544460382      1.49262710711490     -1.28546257104709
  H   6.03087279394455     -0.51229804216324     -1.91664862278955
