24
Coordinates from ORCA-job 19114optt
  Br  1.58446775403089      0.82261694571476     -2.90337273995643
  C   2.75609613917247      0.62271673983226     -1.41630188233716
  C   3.55656610965786      1.59325249828096     -0.92335226818845
  S   3.26549323250193      3.32526241029212     -1.22399743207046
  C   1.61968851378080      3.26354919568376     -0.52144461812828
  C   1.34034482069062      3.28601637889121      0.77692585914333
  C   -0.07697092315883      3.00327265639020      1.25847200940942
  O   -0.70830870862235      3.94185642946464      1.74974502325741
  C   -0.62993000886026      1.69562412635541      0.98425669695540
  C   0.12823881581663      0.54734619990768      0.82020570392173
  C   1.43186684972341      0.45347900483062      1.34825829644413
  C   2.56657707731015     -0.09821318989191      0.78044649659359
  N   3.77913496151446      0.46251602528497      1.18760386017552
  C   4.28318836862792      1.26029732364475      0.30425490143035
  N   2.57818086767401     -0.50019753066703     -0.60937031473958
  C   2.66509931334276     -1.79815351200990     -1.02367776077483
  O   2.82707505494196     -2.16246346932496     -2.16323535003881
  H   0.84311199531366      3.01488592900644     -1.23484315535950
  H   2.09386034427166      3.55532061424640      1.51084558886903
  H   -1.70657073973697      1.67085132087783      0.84856076092117
  H   -0.26976930885062     -0.27538389560467      0.23010956473366
  H   1.63768891445528      1.05836511918543      2.22604565586936
  H   5.19595624833094      1.79937546844223      0.53740803499970
  H   2.54491430807149     -2.48719278883327     -0.17254293113029
