23
Coordinates from ORCA-job 19119optt
  Br  1.00437191997354      0.40900016729756     -0.94221330170886
  C   2.82033230367921      0.22590013321209     -0.46826305307067
  C   3.37452246081820     -1.01410399220408     -0.28329153711336
  S   2.38047434098103     -2.43432691115805     -0.50967138508762
  C   3.35098895816924     -3.63894519649149      0.33337305188495
  C   4.74470053647110     -3.57525533285234      0.29217650627025
  C   5.50438822630721     -2.42252795122374      0.12060135009782
  O   6.72302331807121     -2.29592086068984      0.08470753633530
  N   4.70813669020316     -1.13189765621434      0.02258044148208
  N   5.46202542134021     -0.05076993346364      0.19452386538176
  C   4.95956864837163      1.12308455328854      0.05051819453700
  C   3.58677313056310      1.43239572565633     -0.32051361772324
  N   3.10764327045883      2.61831771470266     -0.48392195456333
  N   2.66646644598329     -4.89007305425653      0.37811664702561
  C   2.98246895912382     -5.73309950943177      1.51148411233504
  C   1.67157042285449     -5.04358206240415      1.42975639948314
  H   5.31696632910147     -4.48076319925031      0.45314817603540
  H   5.64684853391982      1.94795278053307      0.21683093368502
  H   3.84152370688595      3.30303326728991     -0.30774623389971
  H   3.69756881127259     -5.33842897212560      2.22483165627065
  H   3.05920312714479     -6.79233145201135      1.30078898128689
  H   1.52706637527778     -4.19211961706476      2.08553272196840
  H   0.78136806302826     -5.59353864113812      1.15265050908748
