21
Coordinates from ORCA-job 19123optt
  Br  2.21883741608678     -2.24970630861945      0.68382924824372
  C   2.75785733117716     -0.48436541254204      0.22591364771548
  C   1.86036103832094      0.62839471131845      0.36911876846439
  S   0.18088287310651      0.27920680065589      0.76940315625309
  C   -0.70357067448775      1.63445674841486      0.11877962355610
  C   -0.41243568616249      2.28136645913225     -1.01126437051840
  C   -0.72775552721245      3.74950630955263     -1.04426319704725
  O   -1.52643931110582      4.29812976225028     -1.77584194680996
  N   -0.03277732794492      4.40345851323436     -0.05636675214966
  C   0.97892400682341      3.73604658722172      0.73168879236905
  O   0.96573761576462      3.89284159730308      1.93995974307552
  N   1.84966236134324      3.08451269792628     -0.04220486828149
  C   2.42101786264572      1.89402462060591      0.10843998710109
  N   3.75807796123728      1.90347655624879     -0.25896349505921
  N   4.59952358407757      0.85492237332451     -0.47772080641173
  C   4.06214748345608     -0.31744690384874     -0.18971397680909
  H   -1.35117765827180      2.10552330801748      0.85066881861328
  H   0.24087041411331      1.86515665751578     -1.76678498684641
  H   -0.38857500106145      5.29004407730423      0.26877530931337
  H   4.11631775099688      2.80722022613231     -0.51750494512464
  H   4.71551348709713     -1.17276938114862     -0.30494774964724
