23
Coordinates from ORCA-job 19125optt
  Br  6.77329312444174     -4.31696484344053      0.53782054203464
  C   4.96783120739063     -3.63075897666638      0.37817948025240
  C   4.06974900999054     -3.91934114815898      1.36545807757045
  S   2.50531561185327     -3.08666811589209      1.18787140298710
  C   2.31819329617767     -3.42963585126722     -0.56857244372936
  C   3.49819275123718     -3.15523192428441     -1.30254314232885
  N   4.73895559354069     -3.08257560109447     -0.82358352755974
  C   1.16448928549999     -3.98970792810017     -1.07380139783029
  C   0.99179934089454     -4.93465334662871     -2.19454404082614
  O   0.04849502721480     -4.91331880532834     -2.95917892959553
  N   1.84129453769275     -6.08252465930578     -2.24837615159240
  C   2.68832682647642     -6.34615853439427     -1.19285668276486
  N   2.85596552737601     -7.44419903645833     -0.56534518679087
  C   3.61638345678087     -7.16731946422765      0.60465698917867
  C   3.21913034209252     -6.16076266724165      1.39715329746390
  C   4.15699198705749     -5.24026026519054      2.10508000025430
  O   4.95851334807536     -5.52797350531286      2.95526992730167
  H   3.39705443065956     -3.01367681676830     -2.37525735943111
  H   0.23227085881054     -3.85817154371142     -0.53374716805320
  H   1.37579489985706     -6.86300675460972     -2.69324872559864
  H   3.23684080842519     -5.46657317437933     -0.89212808443278
  H   4.54965078756319     -7.70262327154765      0.74017112532984
  H   2.25946794089194     -5.71689376599114      1.15952199816079
