24
Coordinates from ORCA-job 19128optt
  Br  4.74588711361799      2.98876392175212     -0.46845390958483
  C   5.87260559707510      2.40537311072481     -1.94034445601445
  C   5.72563798216050      2.98282791920516     -3.26255251677544
  S   4.27353810987094      2.15852135646687     -4.04385380249584
  C   5.13960289219281      0.63252056457181     -4.09646869353855
  C   6.09985488707002      0.36695171005218     -3.17003828995204
  N   6.16341395691184      1.03872702108078     -1.94869420792896
  C   7.38145863653094      0.00507106909693     -3.77268418048005
  N   8.42935999118936      0.55843783278337     -3.31522246869664
  C   9.54720521595515      0.76058094626580     -4.12475529855247
  N   10.67614237871051      0.18337485316562     -3.93565117671688
  C   9.42041373349841      1.69608392550363     -5.25283367508918
  C   8.39045853015415      2.46979796570348     -5.72698593849078
  C   8.62451786573177      2.89025697409175     -7.14016578496953
  O   7.80784667464495      3.38661251941972     -7.87405858595986
  C   7.10643054040183      2.82633299166735     -5.18719063256257
  N   6.88596273880858      2.94923403554879     -3.90761182364257
  H   5.17627686407670      0.10329962910596     -5.04149049478194
  H   6.92841726915886      0.74912553505503     -1.35339718747856
  H   7.35275599526943     -0.50996134216155     -4.73781300313083
  H   10.59700504535311     -0.44090762806949     -3.13338569429967
  H   10.31301489211909      1.65521793339249     -5.86974272721936
  H   9.64994890183779      2.68825504050241     -7.51063318506899
  H   6.30324418765998      2.93050211507495     -5.91697226656992
