25
Coordinates from ORCA-job 19132optt
  Br  3.63036335240374     -3.22256975235609     -3.35010263296916
  C   5.11384537585796     -2.70731457508653     -2.26877925475464
  C   6.31436820077615     -3.33426152288241     -2.35423473339405
  S   7.51329815253369     -2.61526610825299     -1.22850296555838
  C   7.28950597077497     -0.91521548126589     -1.69755578894063
  C   6.01006252010326     -0.53666937499491     -1.80087578738176
  N   4.96811566729639     -1.46017551428984     -1.64862414414187
  C   8.42944009979184      0.02539328935886     -2.03996512954205
  N   8.32437179017645      1.28301451566090     -1.79893565666298
  N   9.62973137672066     -0.44875770019143     -2.53378548995371
  C   9.75553679100705     -1.51929690119988     -3.26324073612417
  C   8.75804213021430     -2.33739635207125     -3.83444925097483
  C   8.95022455664557     -3.69727359424131     -3.96289590823171
  C   7.92376174738671     -4.65714399130871     -3.80770263192724
  C   8.19425913027406     -5.98379853004262     -4.33171143712493
  O   7.41721865802817     -6.92066551911539     -4.38372686186476
  C   6.65991974016684     -4.40490806421143     -3.22943191690747
  H   5.71983626641176      0.46691740747714     -2.08913462334257
  H   4.03632714808351     -1.08344575908568     -1.68220385176657
  H   7.44414008540770      1.47138445305024     -1.32602708070034
  H   10.78455423362230     -1.87299250842710     -3.37697218512334
  H   7.74500756465147     -1.96232904852782     -3.86201132072036
  H   9.96812386991246     -4.06825894291402     -4.08708152986280
  H   9.22337920915755     -6.10664348627290     -4.73189153371856
  H   5.86856636259479     -5.10432693880873     -3.47715754831089
