21
Coordinates from ORCA-job 19130optt
  Br  6.17193574761986      3.32792800086662      3.33121803739815
  C   5.94244639034587      1.45782925437411      3.15903546752127
  C   5.34247415586338      0.69671943414292      4.10002992406222
  S   4.89009692304438     -0.94125295538005      3.49829944215537
  C   6.49368497280112     -1.34381346720902      2.89717461353701
  C   7.20025359453294     -0.37415418257552      2.31355687240015
  N   6.61056468147116      0.88764299106596      2.08949640501428
  C   8.68923436559986     -0.48619396051188      2.24037270701790
  N   9.50014113998272      0.23767296722415      2.88194350733940
  C   9.01048722260867      1.31660391011307      3.72546658076524
  O   9.40122473182118      2.44465714522491      3.47116803273667
  N   8.13640976675407      0.89283393374068      4.64582512212381
  C   7.65387296992141      1.65584662310654      5.63237390705059
  N   6.42598727391209      1.56227826316523      6.14607755937800
  C   5.42020956449283      0.96427285827810      5.51497408700084
  C   8.52089003973617      2.57075261894652      6.35672336246211
  N   9.21262166101293      3.26419209502301      6.95889417311727
  H   6.96473652815340     -2.26942854096530      3.20095171150740
  H   7.17003962714447      1.53794880594276      1.55584781231321
  H   9.09179857162922     -1.31496583607423      1.65490708696978
  H   4.58489007155199      0.66663004150138      6.14166358812921
