22
Coordinates from ORCA-job 19137optt
  Br  6.05551512532926      0.35690777919156     -3.54699412145800
  C   4.68985097640878     -0.91931313027647     -3.05517505195185
  C   3.47361719926229     -0.88149799589015     -3.69624414904530
  S   2.20453978919791     -1.88546620492869     -2.98112245629890
  C   3.16087407894035     -3.30160925224241     -2.44661646356622
  C   4.45771542491282     -2.97274184880007     -2.01004279721661
  N   5.11779314015871     -1.82403440059124     -2.18937156814369
  N   2.66642112629448     -4.51283964928373     -2.32443596026208
  C   1.60485442622070     -5.04384732265339     -3.00220923868938
  O   0.87389041469821     -5.90292507958101     -2.53866166441682
  C   1.37361581100544     -4.53750451832897     -4.40568134410114
  C   2.36777749079549     -4.30630343781395     -5.24500607028375
  N   2.29492788505296     -3.46257939067507     -6.40828915072934
  C   2.97548175521852     -2.31190451396502     -5.98605987207279
  N   2.46661403580659     -1.16314655585361     -5.87860843699913
  C   3.20961173408461     -0.27606069196363     -5.03500515169672
  O   3.53449984590574      0.82541111635798     -5.39314626918102
  H   4.99311598953752     -3.75913802368144     -1.48773618259624
  H   0.35725968082451     -4.23949725844190     -4.64221553108263
  H   3.38268399672082     -4.57991083590274     -4.97890087376629
  H   1.33224039986216     -3.22077713953664     -6.62411547549053
  H   3.97809967376196     -2.54222164513922     -5.61436217095131
