22
Coordinates from ORCA-job 19147optt
  Br  1.23678093106632     -0.00987475013345      0.02397018667447
  C   3.11273154007019      0.00493159658032     -0.11533939486045
  C   3.77484082841915      1.17189403151841      0.00155426645598
  S   3.13891798974466      2.78147907342144      0.25883658515777
  C   4.76032040339160      3.44204403767477      0.23493005902529
  C   5.67453323048175      2.47838992193754      0.04306679366958
  N   5.14774449673446      1.21615977288986     -0.08672456784951
  C   5.86169469524346     -0.00703121895169     -0.26278596404378
  N   5.20483388379781     -1.16701569922993     -0.43585542715323
  C   3.85587240719033     -1.25633657802528     -0.39517943720559
  O   3.23175782583686     -2.29998730765924     -0.57429196753886
  C   7.24680511324670      0.08786591097341     -0.25132998758955
  C   8.46474858484241      0.19466995727972     -0.22549377521183
  C   9.89390327126972      0.28785056926445     -0.25419740546885
  C   10.69107926867366     -0.90376554965300     -0.63899366935450
  N   10.63693789441839      0.24278233434181     -1.53962229470521
  H   4.93823292224563      4.49466479630698      0.36161946199852
  H   6.74589524122151      2.58794060062382     -0.01599957702883
  H   10.34536241829769      0.97704619771932      0.45086844483879
  H   10.12937381831257     -1.79235352925778     -0.89660009563609
  H   11.65359880454079     -1.07506998516969     -0.17282041246027
  H   9.96003443095423      0.05771581754820     -2.27361182171387
