23
Coordinates from ORCA-job 19141optt
  Br  0.82644884156254      0.16164827431814     -0.12240552626899
  C   2.70633482146225     -0.04792824784967      0.03427589899196
  C   3.49194493144044      1.07023568421240     -0.04286587141198
  S   3.02923579799553      2.74996961098856     -0.25557440538133
  C   4.72817708352376      3.21655177667805     -0.19252248956060
  C   5.53646398793204      2.15330913214068     -0.02721847214389
  N   4.88767455163279      0.95672626591787      0.06110049637795
  C   5.54325543122862     -0.30693161582971      0.20989102902064
  C   4.68994080823144     -1.40624773375205      0.29505503837082
  C   3.27294287049724     -1.30440024981174      0.21781169556714
  N   6.85980591317470     -0.19931000125514      0.27603376607666
  C   7.66431659787115     -1.29224459312806      0.17681554788789
  C   8.96607802134810     -1.48212061535471      0.60297643866463
  N   9.45749927801541     -2.69658240921655      0.18376273334414
  C   8.48760228256677     -3.25401100312005     -0.48689226241397
  N   7.37843476625006     -2.45872541293827     -0.51543221297596
  H   5.02324238218874      4.24662458192393     -0.28317405512078
  H   6.61189303266243      2.13546168881642      0.03941166532421
  H   5.12744960368461     -2.36546856456077      0.52684759764442
  H   2.64667610268712     -2.17940719536591      0.30374649852328
  H   9.55988667306025     -0.79176699247903      1.17806230445836
  H   8.51447344510785     -4.22485015273027     -0.95645658051456
  H   6.51522277587612     -2.62453222760412     -1.00424883446006
