25
Coordinates from ORCA-job 19143optt
  Br  0.92319054427894      0.26798297863687      0.37450571825307
  C   2.78505531951706      0.05012343805034      0.18476442992851
  C   3.55403639575574      1.16896478939799      0.17747713092882
  S   3.03581355119419      2.83103097333808      0.33621242900930
  C   4.68508051367007      3.38199352991629      0.18075987211824
  C   5.52018585772786      2.34325371186457      0.01050024518377
  N   4.91432176110749      1.11116832937426      0.00735839967357
  C   5.55814017412115     -0.11825768475578     -0.16470151489254
  C   4.80560277831169     -1.32528076548350     -0.07681188621669
  C   5.51885205919965     -2.57127732135353     -0.14046565557440
  N   5.17441307893937     -3.75869988406974      0.26644646309915
  N   6.81811659792346     -2.46330156521871     -0.69482235835638
  C   7.47462597314716     -3.71302898310007     -0.98424200482940
  C   8.85829189260505     -3.48962981138150     -1.42042076165656
  N   9.93598127619872     -3.33767261336049     -1.78167881446322
  C   3.34313143412064     -1.29074155348059     -0.02485876105498
  N   2.51465523553581     -2.27149697036857     -0.17005595636125
  H   4.93878645718470      4.42585713864900      0.22034929801809
  H   6.59039564392726      2.38314446505384     -0.12309688985059
  H   6.61728435832948     -0.09302117184320      0.04868285662177
  H   4.31714659307160     -3.70010529503119      0.80428310792787
  H   6.86679985723617     -1.77613866869311     -1.43738094568702
  H   6.96449778687667     -4.31217049170492     -1.74881375406118
  H   7.47632029737877     -4.31973813282813     -0.07888605719752
  H   3.01827456264121     -3.12395844160819     -0.39310459056042
