22
Coordinates from ORCA-job 19156optt
  Br  1.02873973802468     -0.49380204889174     -0.39133630815697
  C   2.88476562893784     -0.25862977308508     -0.21382795511272
  C   3.39950870973933      0.99717447166184     -0.09480856842227
  S   2.55884095237647      2.52367520056673     -0.08026210208142
  C   4.07622800794358      3.37992849128719      0.12138103378713
  C   5.10342786182453      2.51474455577868      0.15923526665739
  N   4.74016027881803      1.19430881627998      0.03564975119119
  N   5.67924551781223      0.21332357507410      0.05534617677291
  C   5.19767727892306     -1.05651437191144     -0.07573461981182
  C   6.14860328071909     -2.12772629686753     -0.08517635949827
  O   7.37435093512309     -2.01312237497244      0.01010371106230
  C   3.77894830259542     -1.40858042433652     -0.21273922089758
  O   3.35394816009357     -2.55802186033259     -0.32124706613114
  C   4.12683395759854      4.85011190130749      0.19369989927525
  C   4.57823486697326      5.68065909719409     -0.95495030504332
  N   5.45682949809161      5.44474169131749      0.18620461213256
  H   6.15079533979705      2.74332293602970      0.27086570645277
  H   5.68503733964511     -3.11990941480262     -0.19181650571919
  H   3.38405627605813      5.31103703476850      0.83857529133903
  H   4.14115895353458      6.66442140224133     -1.07959107815797
  H   4.87832570816562      5.17487100028936     -1.86335879104846
  H   5.49028340720513      6.25298639140347      0.79578743141061
