25
Coordinates from ORCA-job 19158optt
  Br  1.09001999955817     -0.13248684221054      0.03229897633563
  C   2.97093807013514     -0.02741714195982      0.11323544313606
  C   3.69329482356979     -1.16904898261773     -0.09811439987458
  S   3.09098178888876     -2.76481490584409     -0.42819418426817
  C   4.70920761466670     -3.46431951938874     -0.27302072171367
  C   5.67485507932136     -2.42194921508709     -0.43419723496455
  N   7.01529126561533     -2.57455520212587     -0.00623497480676
  C   8.13871464776808     -2.47195757215509     -0.94418900395002
  C   9.28714088690800     -3.05170283277201     -0.10096860207580
  N   8.63725458805077     -3.84729775972020      0.95533743213139
  C   7.41263301336432     -3.48774384946421      0.94586772503209
  N   5.05853628296464     -1.16411756933932     -0.06533119765428
  C   5.70501429337730     -0.00794922733721      0.21489173659186
  C   5.03852479265545      1.15099738235544      0.44038933757891
  C   3.58960751110643      1.24698498319648      0.40292240881517
  N   2.89255622064009      2.32357904625615      0.60670872009698
  H   4.84179396438993     -4.41512095303352     -0.77460357642640
  H   8.30204204554908     -1.44260063640975     -1.26344193792408
  H   7.92124213561616     -3.07638061235497     -1.83133300423775
  H   9.87007142513781     -2.25367374459904      0.37134416030982
  H   9.97620965143963     -3.66472171512128     -0.68196356355162
  H   6.65942030391548     -3.86286301711188      1.62832215706182
  H   6.78287432172450     -0.08511225499635      0.24876828143698
  H   5.60561798582400      2.04456336500191      0.66771530050531
  H   3.52515728781289      3.09770877683881      0.79879072241566
