23
Coordinates from ORCA-job 19152optt
  Br  1.35288756773438     -0.60164707085589     -1.11027494720566
  C   3.13834523617791     -0.37214496108566     -0.50639162056968
  C   3.61248407833994      0.90242823424727     -0.40560657548956
  S   2.81293547803135      2.42331398165139     -0.77239076702918
  C   4.28405123829467      3.29458976166975     -0.33653558709168
  C   5.25871030561955      2.45331107083386      0.05541063220531
  N   4.91271344162943      1.13623540813749      0.02737381777662
  C   5.81814198257657      0.06620602067553      0.41044258559576
  O   6.93828609468048      0.42136393433236      0.79448691356611
  C   5.28402321270020     -1.21762452400832      0.28552267569737
  C   3.96189055970818     -1.47082409469448     -0.17154855941807
  N   3.43364632100755     -2.75730384383592     -0.30481509195262
  C   4.01599432921028     -3.95415168453703     -0.09108190715578
  O   5.16271633481495     -4.17216292558595      0.28150733501918
  C   3.14090500104791     -5.19015879492786     -0.36185131695263
  C   1.75188789671808     -4.96094635179759     -0.73895317704221
  N   0.66163515211053     -4.76240278628210     -1.03521136930895
  H   4.32846905654695      4.36714905393036     -0.39713500735993
  H   6.26043462190202      2.68785027862500      0.37861892646477
  H   5.92239917545730     -2.04199835585591      0.55081409306767
  H   2.47246769156853     -2.77866646340575     -0.61766484152382
  H   3.16432007936610     -5.80344679487408      0.54124041082585
  H   3.63065514475709     -5.76696909235645     -1.14995662211887
