22
Coordinates from ORCA-job 19168optt
  Br  1.27621842311482      0.75298517999142     -0.09998523692355
  C   3.13649376033417      0.38144399894938     -0.05591109214868
  C   3.61702614206992     -0.90708220869549     -0.08707587069319
  S   2.47923277519526     -2.23964903045374     -0.16812082329646
  C   3.59578190457320     -3.60098366150845     -0.13852689791863
  C   2.98530561801209     -4.87139106690742     -0.14798527135200
  N   2.47556580253190     -5.90776887025457     -0.14327579493037
  C   4.96575814874103     -3.45178707271831     -0.11607203344837
  C   5.83138512166660     -4.70158409859461     -0.13380283461860
  C   5.98654409920638     -5.25101106345628     -1.47969213362817
  C   6.10205928668869     -5.70230132244647     -2.58354891552154
  N   5.63627258365055     -2.30575279363067     -0.08090619921946
  C   5.01858347766255     -1.11029523333376     -0.05782835000727
  C   5.90068269394057      0.08181062553816      0.01049889869623
  N   7.18677361571957     -0.00609469563988      0.04324680745385
  N   5.32881519651161      1.35087357961355      0.04315398941603
  C   4.04203181777118      1.46625240101501      0.00980764497953
  H   5.40018752288029     -5.47177445056147      0.50972582935567
  H   6.80796298547240     -4.42310312549308      0.26120847377482
  H   6.19412419376642     -6.09437185476353     -3.56687323991396
  H   7.42810309186892     -0.99631982463051      0.00890348649118
  H   3.62709173862179      2.47190458798078      0.03605956345296
