22
Coordinates from ORCA-job 19161optt
  Br  1.15617511370938     -0.03727179904897     -0.08688643926100
  C   3.03994151982984     -0.00560083223502     -0.07523586017347
  C   3.70263460013895     -1.19838594072240     -0.07488448626705
  S   2.99611962402647     -2.77619039280208     -0.07639764011594
  C   4.56942844346807     -3.52365050379932     -0.07153952660471
  C   5.57663844441148     -2.58924124784286     -0.07082224159896
  N   6.89694536471519     -2.88434088301222     -0.07169804912795
  N   7.92978997623237     -1.98995425810334     -0.09286856103085
  C   9.01489106093113     -2.79863906770225     -0.09521131672591
  C   8.61839462004349     -4.11554024013815     -0.07757071388489
  N   7.27015510937744     -4.19630193899920     -0.06279567847044
  N   5.08359131681054     -1.26232580163439     -0.06957004921087
  C   5.79124488137082     -0.08481653635226     -0.05921500386325
  C   5.16406012511561      1.11057050891969     -0.05665582968015
  C   3.71958044917752      1.26919338808846     -0.06576805682611
  N   3.07727348441960      2.39259510705157     -0.06538819927651
  H   4.70273247281869     -4.58742638777790     -0.08215930160767
  H   10.00564955713147     -2.37649471376409     -0.10985927217522
  H   9.21637190382767     -5.01178164578412     -0.07480251155106
  H   6.86182517498963     -0.20558750537213     -0.05424884924907
  H   5.77318606404380      2.00552555915425     -0.04863144230445
  H   3.74637069341077      3.15966513187678     -0.05779097099446
