23
Coordinates from ORCA-job 19164optt
  Br  1.60856356239392      0.33365055945290      0.84792241112122
  C   2.92062209965247     -1.04269452706559      0.65102736556062
  C   3.84946665739703     -1.33317260999907      1.69121241786906
  S   5.19872335017532     -0.13188529864824      1.56759462192072
  C   5.67394022824336     -0.81905035238587     -0.00220542658305
  C   4.83650437649618     -1.59100773469955     -0.72992380401036
  N   5.44096775211013     -2.74451389917671     -1.28197415403814
  C   4.88341814541141     -3.82982066287985     -0.94282327508163
  N   3.58122510990624     -4.18653118671515     -0.72888063978799
  C   3.51469902316915     -5.17435560417691      0.33223838538968
  C   5.00313486926486     -5.33382986712568      0.67226138690516
  O   5.65311180922770     -4.90731756879131     -0.51639221012221
  O   5.44304376646517     -4.61360846436635      1.80689552560298
  C   5.28697155968423     -3.23093461022066      1.87032626897557
  N   4.15459925585582     -2.68150403190391      1.76736776590859
  C   3.32952408439594     -1.36849059225500     -0.67169788359993
  O   2.67410580960872     -1.37403610798737     -1.72050970973651
  H   6.74022053894212     -0.93723208796564     -0.15597773821292
  H   2.86712236476641     -3.47910801139820     -0.81729146175327
  H   3.09997207149019     -6.11996144563444     -0.02536812974023
  H   2.95728321144118     -4.80971585292354      1.19205485610682
  H   5.30463120782428     -6.35834606935791      0.86980961141126
  H   6.23914914607808     -2.72553397377589      2.02333381589456
