23
Coordinates from ORCA-job 19165optt
  Br  8.82294941673387     -2.34775065662623     -0.00921902562108
  C   7.13619929898723     -1.47940618936375     -0.10588315089197
  C   5.96205376787544     -2.13892735300116      0.06891693093599
  S   6.14293957579232     -3.87180825111568      0.51554679840398
  C   4.45796774262579     -4.24851647908874      0.68685882812979
  C   3.72424398356913     -4.24790781078767     -0.42335673523612
  N   2.39360727898299     -3.86983582672817     -0.39618666067639
  C   2.28257684040535     -2.61652252072824     -0.12709919237529
  C   3.25721008664472     -1.53639293725217      0.01200993742935
  C   2.66692242501023     -0.27627343251905      0.00844291909191
  C   3.64697427750554      0.76463112226319     -0.08766408164031
  O   3.45351609634853      1.99817195250919     -0.14330988590170
  C   4.92186439030047      0.06412300295626     -0.12402580429309
  C   4.74092224801437     -1.32322175421092     -0.02472332746684
  C   6.18446229077378      0.74281393424543     -0.27546571366571
  N   6.43430085634473      1.99338711705454     -0.39007203600476
  N   7.25821378449082     -0.14241878765489     -0.33315264970765
  H   3.98350450543893     -4.10397393952894      1.65041191388539
  H   4.18616482265093     -4.39923874466771     -1.39759229426070
  H   1.25935896229883     -2.24858175136759     -0.05682001411334
  H   1.60127737581838     -0.09547488917741      0.01103297309735
  H   5.55044143713894      2.49722333342213     -0.34960634556019
  H   8.16832853624862      0.27090086136758     -0.46204338355860
