25
Coordinates from ORCA-job 19172optt
  Br  2.59674099806516     -2.25300634766878      0.91709143963646
  C   2.86320770793148     -0.39010160110120      0.68075791032721
  C   1.85268991226798      0.44394540839445      0.34231968899058
  S   0.27594184667033     -0.19280786325241     -0.11237355085258
  C   -0.61699584413727      1.14173452537674     -0.74752131441585
  C   -0.09094953648953      1.93644832136052     -1.73399238261818
  N   -0.45478435573993      3.18371720600029     -2.05663008906239
  C   -0.95935157828918      4.01104663069187     -1.13390349868317
  C   -0.80774002262602      4.02279119734406      0.28485669129616
  N   -1.47153364837596      4.81926453651071      1.09447605578985
  C   0.17119151837595      3.10660623335323      0.98766867401572
  N   -0.10132379288350      2.54576423478622      2.09444349013607
  C   1.53766542290052      2.97832503544816      0.43978364713153
  C   2.25684050459753      1.86797838784333      0.24011118430950
  N   3.58619312215717      1.97604984007809     -0.21515752152072
  N   4.58466910738137      1.20216227939129      0.26813780583228
  C   4.22671726476730      0.06493274673970      0.74708639365758
  H   -1.45519276856806      1.47728728154743     -0.15460329653769
  H   0.70559605073052      1.50683372946138     -2.34442673736404
  H   -1.52563360191695      4.85676567399568     -1.52606874155519
  H   -2.13030062162484      5.37415803429748      0.54595707599622
  H   -1.05553621705210      2.81067085484954      2.35366646953112
  H   2.01938657874391      3.92523661505582      0.20551721711915
  H   3.89972686248627      2.91023887170434     -0.42372609951884
  H   5.00677509062786     -0.58404183220798      1.12152948835921
