25
Coordinates from ORCA-job 19175optt
  Br  1.26451169438485     -1.84764572666115     -1.03842152250224
  C   2.97072913682150     -1.58050197881888     -0.19067162245622
  C   3.11169102640733     -1.87757819719800      1.19105174938409
  S   4.41601193739870     -0.97240253359325      1.97494549519733
  C   5.70959643630301     -1.30150726783238      0.82028026504683
  C   5.40748838275742     -1.65364378383747     -0.43156916024660
  N   6.38028326770370     -2.30271868958491     -1.24798447251520
  C   6.75202747219507     -3.64199811885763     -1.19114242760486
  N   6.29029226187192     -4.65730322523060     -0.56941922205570
  C   5.02781514228653     -4.53061971677724      0.10652181658163
  C   4.16650317889972     -5.80196795931188      0.26681699351287
  O   3.17449152595231     -5.43448822130554      1.26940428493762
  C   3.52202595601963     -4.13432319773884      1.63295089429230
  C   5.02036352550088     -4.12913097329251      1.58966154386922
  N   2.69577292946474     -3.19809918911898      1.52474226935121
  C   4.06483921741984     -1.42182762934775     -1.06785410680505
  O   4.05138581197559     -1.24757328980718     -2.30338727489974
  H   6.72039806128340     -1.39681544605389      1.20454763374413
  H   6.43147354972694     -1.91282353718231     -2.18186435126831
  H   7.62569809013634     -3.81970674730320     -1.81942013234802
  H   4.40151860162138     -3.81355914293969     -0.43135709465236
  H   4.76950190563922     -6.63764137976537      0.63074289586609
  H   3.63424531005669     -6.08882914691307     -0.63931424365098
  H   5.50190300114197     -3.20661082771310      1.84627565540143
  H   5.42843257703124     -4.94568407381513      2.18946413382051
