21
Coordinates from ORCA-job 19174optt
  Br  2.00105945242193     -1.00525539214249      0.93997467731613
  C   3.16495923942688      0.19588863649629      0.07774048799461
  C   3.13943169846261      0.41794344309690     -1.29163770425618
  S   1.62050142967127      0.17119510629198     -2.19281620921893
  C   0.85024122318300      1.72323768123564     -1.89087066429535
  C   0.90747196155048      2.49671306049546     -0.73717480160873
  N   1.55231043604929      2.14028446630849      0.37395001028925
  C   1.87090208318571      2.88237820260375      1.41346681810819
  C   2.80547615991492      2.43244366134422      2.41845482554189
  O   2.98945190778417      2.96027358343244      3.49004090623414
  O   3.61335729260400      1.27819093880863      2.15954838637418
  C   3.93495030697225      1.05177608842381      0.85568461427533
  C   4.90778446358168      1.80895521941557      0.22314138821708
  N   5.05951588167925      1.85246367270751     -1.10168780046640
  C   4.14006428125747      1.23084861315058     -1.82760985903459
  C   0.29626629990847      3.81304543330079     -0.82254479316858
  N   -0.17086022993530      4.86393805031088     -0.84344376221539
  H   0.34147555916856      2.12654356622508     -2.75513492917080
  H   1.47786765267352      3.88561624860711      1.58546791652080
  H   5.54503510836309      2.44361757034847      0.82961675128185
  H   4.15373779207671      1.40590214953886     -2.89816625871847
