26
Coordinates from ORCA-job 19179optt
  Br  1.13786954449062      0.39148352743002      0.26141595546041
  C   3.00517360653136      0.25632459481392      0.08350987741298
  C   3.56793187822576     -0.98419376878038      0.10913763089664
  S   2.78593030921873     -2.51773567586213      0.33170903189564
  C   4.31978575563525     -3.37138694980734      0.21124172629745
  C   5.33869483759405     -2.49222245519143     -0.05277769066774
  N   6.65053339006561     -2.76719643150100     -0.26201899759100
  C   7.20094283989289     -4.03426595986560     -0.14874687397613
  N   8.34780663573913     -4.27494448682879     -0.72312807367311
  C   8.87311706515752     -5.58191460489568     -0.47556847205594
  C   10.20754775999373     -5.71243523303238     -1.15276294284554
  O   10.92103053293122     -6.68480362769666     -1.08934333652837
  N   4.93357633295411     -1.15085187289204     -0.00881397563865
  C   5.73591726763416     -0.04333676314184     -0.05868146379251
  C   5.21312187955303      1.20528740823987     -0.09578885830664
  C   3.78637839631010      1.47132524651808     -0.05700885901270
  N   3.22767918030259      2.63841402601811     -0.10696938402193
  H   4.35547849845668     -4.42821070344761      0.00300663067431
  H   7.19773915610641     -2.13912495108632     -0.83557449243392
  H   6.65507685102073     -4.70948158058228      0.50942195497069
  H   8.22057459039899     -6.39438744385047     -0.85726210645435
  H   9.01521265401122     -5.81179056568111      0.59945849485602
  H   10.49832133387690     -4.81950397872655     -1.73855967431876
  H   6.79928232599944     -0.22979050880432     -0.04006585380830
  H   5.88952840063065      2.04939286225743     -0.12451838696644
  H   3.94674897726857      3.35334989639670     -0.19431186037209
