17
Coordinates from ORCA-job 19187optt
  Br  0.96176394677124      0.08910668762613     -0.07676641223848
  C   2.85169765726381      0.00597588502614     -0.07549286309898
  C   3.51083519802298     -1.20066282824300     -0.07546861262033
  S   2.78980657628273     -2.78672417270721     -0.07589684141732
  C   4.33907566636086     -3.56790806241923     -0.07610794994826
  C   5.34644418802376     -2.65124740640052     -0.07546690848748
  N   6.72536459305365     -2.87059581415784     -0.07539267621585
  C   7.36753592995336     -4.05243664334118     -0.07591957564381
  O   6.85162704272340     -5.15220289836978     -0.07646539128227
  C   4.91738741207660     -1.29050891208794     -0.07505231985924
  N   5.83945053206417     -0.29185638068389     -0.07458151253312
  C   5.52739725588882      0.98468111608057     -0.07437692518131
  O   6.25341756403822      1.95724138578456     -0.07389337608522
  S   3.70449860223833      1.51230006338286     -0.07481007409731
  H   4.42573970922078     -4.63924027165412     -0.07658816802629
  H   7.25442073437207     -2.00383604977467     -0.07493082832585
  H   8.46253739164518     -3.92208569806088     -0.07578956493887
