24
Coordinates from ORCA-job 19188optt
  Br  0.93257396992263     -0.25369694542207      0.38184658108793
  C   2.79386367004596     -0.14209560469118      0.13751416519594
  C   3.38170831801935      1.06859193832831      0.12072346015251
  S   2.65833806759905      2.65782069959882      0.28931900299651
  C   4.23640515384888      3.42569932555520      0.09033269722600
  C   4.40464833830358      4.88939878926899      0.23799068720432
  N   4.38774495844532      5.29274346912865      1.65213422209857
  C   3.29387336114269      5.67419968447913      2.10766328407791
  O   3.21888061953059      5.95839085556773      3.46572336034492
  C   2.14537791971410      6.61452370633176      3.92166053649409
  O   1.24734361508475      7.05226394493900      3.26738516748515
  C   5.19069127128111      2.47797017405384     -0.07161447525702
  N   4.74947818227686      1.19809625975620     -0.06582973183517
  N   5.60045332090349      0.12832366530925     -0.25341038168526
  C   4.97835033351485     -1.07306266560761     -0.22313771767296
  C   3.60528846143064     -1.35858308681609     -0.03665768231850
  N   3.01843270903337     -2.53664836321658     -0.00750021665056
  H   3.62988289079687      5.43252891750471     -0.32243792529546
  H   5.37580623825931      5.17611668258004     -0.16670324548364
  H   2.35083823961074      5.80097538288202      1.57748519475802
  H   2.21898864635877      6.70010488701906      5.01200714147723
  H   6.25091173738072      2.63762599028351     -0.19791635708345
  H   5.65490767105285     -1.90849680850362     -0.36597414041899
  H   3.73021230644340     -3.25379089832916     -0.14160362689813
