21
Coordinates from ORCA-job 19181opt
  Br  2.25062431279567     -2.32531638688711     -0.05764473415898
  C   3.93451340109967     -1.74247341530249     -0.72963924182801
  C   4.65995191677432     -2.48012196752487     -1.57781273226742
  S   6.18197774849390     -1.71515977274477     -2.04333761682785
  C   5.29593700646694     -0.19662221505316     -2.53226356209088
  C   5.32631547998108      0.17397391984430     -3.90458058364708
  N   4.19948377189819      0.59632361506720     -4.52191869577426
  C   3.13471957424582     -0.15863426743277     -4.46468001968946
  N   2.96474644847992     -1.42669308723955     -4.08906216729804
  C   3.90933533247878     -2.37000966535558     -4.30510089483990
  N   4.80004478896642     -2.36103463785283     -5.23581627066667
  C   3.82462263444235     -3.58103796969055     -3.40050904040951
  N   4.19231140103200     -3.65950368487961     -2.18876667570398
  C   1.88822050862199      0.52728249272750     -4.83389964816713
  N   0.91131766490969      1.05219728380011     -5.12658315884185
  N   4.49943874603184      0.34830479565137     -1.67483371339775
  N   4.24985607284409     -0.41113719933047     -0.53506848028231
  H   6.22656034668495      0.02577205548037     -4.48882626648793
  H   5.33621304460069     -3.22697881913235     -5.21166340903142
  H   3.46552530628928     -4.50143846576910     -3.86399694225936
  H   3.62228449286211      0.08530739162445      0.07600385367001
