21
Coordinates from ORCA-job 19194optt
  Br  11.86893174660761     -1.11397030008938      0.04023645821743
  C   10.15366969889978     -0.31884121521177      0.05185947098217
  C   9.99054652457944      1.01794990816998      0.03221875901156
  S   11.35530922544486      2.12466423504953     -0.01111048225697
  C   10.25868649435984      3.48100557038368     -0.01466369837866
  C   10.78905087056248      4.82132558402739     -0.04894274362998
  O   11.97888627633632      5.08468730421041     -0.08113066925047
  C   8.92447244376145      3.15111966611299      0.01680404780786
  N   8.01128868869347      4.17706206108658      0.01836933812025
  C   6.71437181148874      3.98313689283294      0.04463734284373
  C   5.92096179920949      2.82396731343192      0.07309956251667
  N   6.25089075965317      1.53727328767591      0.08363792928422
  C   7.47918206281597      1.02762228260948      0.07093155318423
  C   8.71518091520206      1.70184953784722      0.04301005647092
  C   7.41033002746671     -0.47491527547741      0.08954772465322
  N   6.33432665373673     -1.14740878871318      0.10891189910229
  S   8.86672246098917     -1.47164006978982      0.08890242540361
  H   10.02474918126413      5.61170603634865     -0.04401327881475
  H   6.13167164545850      4.90505269312594      0.04330074167905
  H   4.85019379743688      3.01225565855640      0.08926094375831
  H   5.56557691603306     -0.47290238218747      0.11013261929532
