20
Coordinates from ORCA-job 19199optt
  Br  4.18456541680086     -2.74350902722147      1.90904176451931
  C   4.68006826835767     -1.50116656755998      0.55930414711219
  C   5.41199958954961     -0.32087554517226      0.82093111635896
  S   5.25502155689989      0.92356517640178     -0.44229027437478
  C   6.32950572437600     -0.05845934985457     -1.47984681700443
  C   7.63846493276679      0.16925899424749     -1.40259036172038
  O   8.58282575850485     -0.84079272017500     -1.57216131568730
  C   8.80370764293141     -1.29917904692434     -0.27707773906893
  C   8.03144424134581     -2.23236908966132      0.26045352421549
  S   8.08277062845883     -2.57879478046610      1.98786833618054
  C   6.94487470679089     -1.31843942349262      2.64504997511023
  O   6.69599799647335     -1.33439021469989      3.81169205692962
  C   6.53502450450837     -0.18957000463275      1.67880598492641
  O   7.33150732737040      0.75300607118560      1.70865888975183
  C   5.71791405034496     -1.28861862898669     -2.04854222304412
  O   5.91201265130854     -1.69270475668899     -3.16803333476091
  S   4.47347822562051     -2.12720928973969     -1.05385711562880
  H   8.02629432920797      1.09054124826537     -0.98192975871256
  H   9.55123114722520     -0.75030550549638      0.28746445200569
  H   7.27329130115797     -2.72898753932820     -0.33394130710807
