24
Coordinates from ORCA-job 19198optt
  Br  1.09268819526979     -0.63097205569005      1.23233331849420
  C   2.43309514447141      0.08279950013419      0.12702994923764
  C   3.34075868438845      1.02103573605096      0.50040595741348
  S   3.03447846372624      2.25711610771527      1.70948790968043
  C   1.34881762694226      2.67347261352508      1.24869492018258
  C   0.56853909959405      3.14871930286957      2.35761676407962
  O   0.99976940387297      3.29844975141510      3.50141182821451
  C   0.89154327188630      2.35653580411494     -0.02554579026797
  C   -0.42950970781813      1.95154670124585     -0.38270275459981
  N   -1.50061086098745      2.29107659193778      0.28134489335009
  C   -0.60943793812861      0.93245450234320     -1.47600184386936
  N   0.12794966766285      0.14427095895792     -2.15287659895622
  C   1.50426727229317     -0.03394277792463     -2.22872392779308
  C   2.46734033267772     -0.21031281147138     -1.30655318315648
  N   3.79232920396090     -0.49754595011545     -1.69698286670736
  N   4.77417907559653      0.38049564558600     -1.34958461324884
  C   4.51096122090079      1.14829347396362     -0.35034589219099
  H   -0.46370346300201      3.41814226350691      2.09993507354287
  H   1.62788052231169      2.16469012971115     -0.79157535570615
  H   -2.31242401898300      1.80237992482542     -0.09420467836632
  H   -1.67801512547532      0.79446429844195     -1.67803484435670
  H   1.82393953225491     -0.21608861300136     -3.25490158597644
  H   3.91773545617425     -0.84012925680351     -2.63689044350287
  H   5.26942894041025      1.87504815866146     -0.08533623549683
