22
Coordinates from ORCA-job 19191opt
  Br  2.84460939876933      2.28918256013729      0.40671654819736
  C   4.28992574759280      1.22827137890085     -0.29556134182476
  C   5.52879841346567      1.79859924168087     -0.52365813605364
  S   6.55129606352339      0.71883033592071     -1.48723152869896
  C   6.33532789296838     -0.60225162050583     -0.29288174153895
  C   7.28927386437418     -0.89644950468065      0.66793208916406
  N   8.36189772543068     -0.11716505449807      0.93980241091735
  C   9.08008893580645      0.43284857812127      0.03003010121329
  S   9.72783512131451      2.05017246180376      0.24599991981295
  O   10.83761328303368      2.19091338832008     -0.65513763109236
  O   9.84424963361526      2.42024182053137      1.62205042591901
  N   8.50733629523870      2.99585709618771     -0.41406788036560
  C   7.36121595038721      3.34697326561980      0.33326054908673
  C   6.08760644850682      2.90657481374617      0.19593325617758
  N   5.06292962814380     -1.04293776589220     -0.14513272609234
  C   4.07854499450294     -0.17503576430557     -0.28140358551763
  H   6.98819358795622     -1.59231026155733      1.44325349438485
  H   9.13988256907258      0.11222774190046     -1.00860202456928
  H   8.30152687783609      2.64771883678599     -1.34388271911270
  H   7.56558805850160      4.08607502560920      1.09541401695909
  H   5.37669462559480      3.41856657144327      0.83603930523501
  H   3.06756488436440     -0.55390314526925     -0.18787280220105
