23
Coordinates from ORCA-job 19196optt
  Br  2.16196907942087      2.39409564376842     -3.29727882793470
  C   2.53901635654461      1.43576765977471     -1.72556963767391
  C   3.33997041110244      1.83278369940731     -0.72269870180272
  S   3.59748880813086      3.54159336096746     -0.30935498698331
  C   2.10884461868684      3.65305603750058      0.67070493567402
  C   2.20842846819822      3.59758907473325      2.09357504618896
  O   3.21799376812851      3.64102017714635      2.78891186884416
  C   0.91180567311474      3.34709803688940     -0.02771593470246
  C   0.19996292908896      2.18907390596341      0.26446291233774
  C   -0.71449809699474      1.49685408045757     -0.53410587080190
  C   -0.70425296734614      0.05760360381861     -0.59063807519936
  O   -1.54021564329517     -0.64816930277677     -1.14820355822175
  C   0.53936846529004     -0.55276753054636      0.04586135816822
  C   1.75350435824010     -0.28763181295311     -0.42529779289567
  O   1.90310468962350      0.24537856549476     -1.70508165508187
  C   3.01539214770353     -0.20171250396820      0.32354482997780
  N   3.73470923147856      0.84515660004922      0.19908992053541
  H   1.21192615799778      3.55864792360314      2.58308695993308
  H   0.76519604528185      3.79145206881947     -1.00886348478171
  H   0.58964642293526      1.64702041256910      1.12046123652320
  H   -1.32725002069455      2.00117622508706     -1.27323902839888
  H   0.46056156972225     -1.06220467958510      1.00059662506177
  H   3.30732752764166     -0.96988124622032      1.03375186123386
