16
Coordinates from ORCA-job 191optt
  C   -3.17567317881444     -0.34241985067743     -0.00000045995669
  C   -2.46128455296614      0.85146621329523      0.00000047928813
  C   -1.07231836569154      0.84198879968558      0.00000085643173
  C   -0.38348657385364     -0.38136285618311      0.00000043343588
  C   -1.06762112148880     -1.59798034904463     -0.00000075335564
  C   -2.50471959241474     -1.59111442119537     -0.00000086233254
  N   -0.38401897889860     -2.78878822577046     -0.00000183817584
  C   -1.12607367019649     -3.89381952014613     -0.00000088987632
  N   -2.44232662969500     -4.01644724010989      0.00000038529448
  C   -3.13225207399024     -2.84234720847791     -0.00000067860718
  H   -2.99515302959955      1.79612858613939      0.00000089271039
  H   -0.52112042065830      1.77527736291289     -0.00000059730922
  H   -4.26092538633611     -0.33292992638515     -0.00000055390243
  H   0.69964191934275     -0.41505268580731      0.00000045928235
  H   -4.21654034187182     -2.90823481887211      0.00000099568664
  H   -0.56512800286731     -4.82836385936359      0.00000213138625
