23
Coordinates from ORCA-job 19206optt
  Br  0.97583117089323     -0.88613086958614      0.76869985966810
  C   2.58272997828352     -1.68133564629276      0.04825332909119
  C   2.91654170971640     -1.54091856083159     -1.34082637253302
  S   3.77315557318731      0.02563058286007     -1.56495799375532
  C   5.27127410288182     -0.52701869789753     -0.82226562618411
  C   5.32229436892679     -1.42792490671671      0.19512729154354
  S   3.90654933392499     -1.70942081444978      1.22438692523962
  C   6.38257144463662     -2.42857029372809      0.20015938514658
  C   6.33304040169599     -3.64215724886294      0.79146883280581
  C   6.72112892563299     -4.83830963336151     -0.02949532728238
  N   7.85968964934379     -5.17996610351926     -0.47818938610573
  C   5.38311361857393     -5.31547943452434     -0.47165679060620
  C   4.85079251919593     -4.60202443559385     -1.51620438526254
  C   3.60763003271107     -3.92963388603427     -1.43997411864919
  C   3.53972109145932     -2.64461352636814     -1.95059083908085
  H   6.16717607875635     -0.40795320688911     -1.42511311830132
  H   7.10179557233666     -2.29534004312979     -0.60495219287307
  H   5.56643657135074     -3.82070543086746      1.53676377476453
  H   8.57215446165417     -4.56848102884750     -0.07508573497246
  H   4.69761268554244     -5.53635941254275      0.34305245026414
  H   5.55164480072564     -4.22951280564649     -2.26245832500342
  H   2.95901806291844     -4.18356934172349     -0.60724520805686
  H   4.19909784565181     -2.41120525544653     -2.78489642985704
