20
Coordinates from ORCA-job 19204optt
  Br  1.24493072577500      0.48026884323441     -0.01072480786473
  C   3.06791906479137      0.03506562095298     -0.00923672049506
  C   3.45101343874103     -1.25446288381781     -0.01087573534854
  S   2.50510580666251     -2.72864504534865     -0.01400500544826
  C   3.96506534328301     -3.70418644653964     -0.01299223348966
  C   5.03811916920127     -2.89286878714726     -0.01052253786222
  O   6.37441961926656     -3.16551401496329     -0.00929331341543
  C   6.86638518406431     -4.40307496796290     -0.00752785333462
  O   6.25300939553200     -5.43182932624955     -0.00696752203553
  N   8.24923194000564     -4.33919519936450     -0.00645130186129
  C   9.03489257506302     -3.19489711101593     -0.00678283694966
  O   10.23480076841170     -3.26448028970017     -0.00626282789787
  N   4.78366837449142     -1.55330059125253     -0.00947226376714
  N   5.82080397482811     -0.58526624177515     -0.00718831214024
  N   5.41145106612758      0.68049294659762     -0.00407013862043
  C   4.11418025487386      1.08838795506507     -0.00456115245328
  O   3.79523773335556      2.27703328592276     -0.00121305183549
  H   3.94797405721531     -4.77564797598592     -0.01396950921114
  H   8.72812459553466     -5.22814458014800     -0.00541058520945
  H   8.45766691277603     -2.26173519050151     -0.00747229075998
