21
Coordinates from ORCA-job 19203optt
  Br  5.70073456664944      2.06436184426014     -3.54558889645302
  C   4.92818199568283      0.33879874373833     -3.57983502391153
  C   4.41492362833283     -0.26474450906138     -2.40888286560810
  S   5.23703471999724     -0.01264125871119     -0.86394785564424
  C   6.90870844317925     -0.12496981165819     -1.44252848619483
  C   7.25727856853593     -0.93241371828179     -2.43427667073449
  O   8.51092790639575     -0.89521621077940     -3.01504839954061
  C   8.68865874973741     -0.61509224892265     -4.33741382831315
  O   9.74666615313519     -0.85299852878512     -4.82823204081368
  C   7.56578982417015      0.08005843431234     -5.19552447044428
  O   7.92521963073513      1.02912989879423     -5.84310562949679
  N   6.39855292673817     -0.59928696403700     -5.30699029945883
  C   5.31040834590939     -0.56024478077976     -4.62755627362712
  O   4.48322790884195     -1.61569098410866     -4.81072171562295
  C   3.25236345131857     -1.58655985482018     -4.07899081246913
  C   3.52138633455055     -1.35900218423480     -2.59357767837108
  O   3.01346630232002     -2.07980304645074     -1.73574394738086
  H   7.61013592980548      0.60202545189236     -1.05269308533535
  H   6.59595791254495     -1.68644075156673     -2.84075994006537
  H   2.79291156178009     -2.56037691721706     -4.22160443566087
  H   2.61046513963941     -0.79689260358273     -4.48197764485357
