22
Coordinates from ORCA-job 19209optt
  Br  4.28974836210724      3.75348793259983     -3.28037849516687
  C   4.90135495560324      3.14143435833972     -1.56736903762211
  C   5.37308349998197      3.98513662052257     -0.63710693739059
  S   5.85380776149455      3.31304781994958      0.93114235801549
  C   6.74900606240775      1.86983614459353      0.45858378471565
  C   6.18285800030903      0.99682544823900     -0.44471649242291
  S   4.72070475461095      1.41238409419562     -1.29249664158966
  C   8.08236160420547      1.74988645229449      0.96682426606954
  O   8.75428373034884      0.70120805269743      0.94051420245426
  C   8.77097756451942      3.06063883314759      1.30906528312331
  N   9.45749970178814      3.25816538833435      2.35557797803502
  C   8.73309954677500      4.02916467617022      0.14539997243498
  N   8.87516134910277      3.69239768654533     -1.06022289810494
  S   8.45512607513264      5.74177622299576      0.58017593065775
  C   8.02634158074170      6.32113607671274     -1.02880899012935
  C   6.80133325602760      6.27906430633509     -1.54086771702912
  S   5.29948129110945      5.75665743523067     -0.75007449259544
  H   6.76896812403346      0.18947276621666     -0.86224855002673
  H   9.91586367333920      4.17196343488572      2.32310516438374
  H   8.95374915936836      2.67541306956884     -1.13254503015859
  H   8.83638872863964      6.68923894063823     -1.64736876874279
  H   6.65680121835343      6.64566423978694     -2.55218488891065
