22
Coordinates from ORCA-job 19211optt
  Br  0.64081848125928      0.58090574780442      0.05849784445248
  C   2.48559915943426      0.26256454742135      0.38341386600608
  C   3.37586203286652      0.31647773421887     -0.60336269208474
  S   5.07630435002257     -0.05703304231113     -0.28982188800387
  C   4.91372062352332     -1.49239693874407      0.70013144648994
  C   3.94101806535166     -1.62642079792341      1.60581917408848
  S   2.90920582429369     -0.23065178965745      2.00961675356167
  S   3.47643734986597     -3.20670505228506      2.22157044647376
  C   2.88217342101307     -4.02104280920704      0.66997170675905
  N   1.81095080276491     -4.68126354858265      0.68219103173730
  C   3.82508515578446     -3.91813615071293     -0.49689753018898
  O   4.91091442820641     -4.54237473364070     -0.39502669520245
  C   3.51001167730950     -3.01686156283757     -1.53938225657405
  C   2.36819953364015     -2.25299497642214     -1.68641051322491
  S   2.30871655595283     -0.96237338306380     -2.84625891168820
  C   3.03166764322872      0.47946900103817     -2.04327316826492
  N   3.27315639316272      1.56725113139337     -2.64238799054461
  H   5.55486187299637     -2.32632663964485      0.43421415867593
  H   1.33475316670681     -4.61248476955624      1.58266792967648
  H   4.31345809630242     -2.88312862201152     -2.25974753073485
  H   1.50876543894074     -2.36914018281163     -1.03819282427794
  H   3.00731992737356      1.50066683753605     -3.62733235713164
