22
Coordinates from ORCA-job 19214optt
  Br  1.56477570092106     -0.63495039082139      1.72542990616815
  C   3.19475219557632     -1.58438515140343      1.31292060810441
  C   4.29642552735305     -1.52073121851390      2.20229522138588
  S   5.43313067783854     -0.28122919089429      1.66158850356649
  C   5.59047841747629     -0.87329303858377      0.00815738588811
  C   4.73020937480809     -1.72788948690969     -0.57494534987560
  S   5.18575005085847     -2.43446891750629     -2.13273612382081
  C   5.34856826380772     -4.16220589745465     -1.73249579850315
  N   5.75046966989625     -5.04552738485372     -2.52797821891604
  O   5.05220360987766     -4.43500079350479     -0.42980179387535
  C   4.06490778448814     -5.32654989181632     -0.09327249932329
  O   3.60733863997617     -6.12710979627508     -0.85384029024439
  C   3.54592506683580     -5.12926332078479      1.27525168459523
  C   3.82681314709284     -4.17521921105619      2.17413745389711
  S   5.19767751735208     -3.09765606376396      2.21294344194897
  C   3.34652515767859     -2.00395562350053     -0.05315602006357
  N   2.46151785685214     -2.44495229737060     -0.87919775209376
  H   6.50492001140207     -0.59130725448350     -0.50102676935532
  H   5.94219914334546     -4.64180248934791     -3.44229344213532
  H   2.69447319808234     -5.77316459845634      1.46027750513550
  H   3.13272065328390     -4.04369110127131      3.00064985193666
  H   1.57021833519694     -2.53264688142747     -0.38990750441992
