19
Coordinates from ORCA-job 19221optt
  Br  1.20939064629257      2.65054039822836     -0.30047785571563
  C   2.15718039008060      1.26190686309872      0.58304051264627
  C   1.92028574591576      1.02492491611581      1.91137176043502
  S   3.21863288999139      0.15525559803865      2.79077062351430
  C   4.39907710804094     -0.06488385186754      1.52166207982203
  N   4.19291879048842     -0.02243462202804      0.26883574828606
  C   2.91014385166779      0.28589268589842     -0.19986305637631
  N   2.50446843297946     -0.35885354488594     -1.25053970620199
  C   1.21316100451871     -0.37278397609839     -1.69526889598914
  C   0.04936948081186     -0.26003370970020     -0.94662584331890
  C   0.03094256721304     -0.27748593382110      0.44839071592718
  N   -0.83571102651771      0.46626743933079      1.18424326021376
  C   -0.38637453648432      1.13431957677883      2.21584273285331
  N   0.87025445407428      1.30633193503529      2.68429577129536
  H   5.39580419173712     -0.29662965478401      1.88936614961549
  H   1.12019026300672     -0.49442900634959     -2.77076857366610
  H   -0.86483513143209      0.01164338029892     -1.46736497069040
  H   0.79399452584304     -0.85624449661772      0.96524541779237
  H   -1.14689364822759      1.62169600332873      2.82284412955729
