23
Coordinates from ORCA-job 19226optt
  Br  4.64991972793396     -1.74065972840513      2.93632927186613
  C   5.25057412338744     -0.67001713806051      1.50053270931778
  C   6.46127898262376     -0.10506136221639      1.54725171533513
  S   6.91324587551078      0.86058254298135      0.10587256208327
  C   6.21819615284896     -0.28160274067578     -1.07851065788336
  N   4.97198517225396     -0.67589784940961     -0.91478179941513
  C   4.34463959494033     -0.61906718651142      0.29042243889575
  O   3.13229992107693     -0.65256213236867      0.43259318498649
  C   7.02519326628020     -0.79872703266989     -2.15660563222847
  O   6.54380869799747     -1.33657470792278     -3.15591516423409
  C   8.57610033529128     -0.84072878727663     -2.11262312500329
  N   9.29178107478664     -0.71005764726803     -0.85121344491276
  C   8.84841359340482     -1.41219444989927      0.25400980291052
  N   8.13040089089267     -2.44777180724619      0.31849585748371
  N   9.33209640782708     -0.83611815035538      1.46876174405178
  C   8.56959798646900     -0.42257391478445      2.53268109668392
  N   7.33481768388398     -0.13536046056119      2.62176686153401
  H   8.97060730906672     -0.07948421080801     -2.78770351952602
  H   8.81548085002600     -1.80344283243873     -2.56752248054278
  H   9.45787349640169      0.25174464637486     -0.59771675642508
  H   7.75360586079949     -2.70945360894794     -0.59104624203845
  H   10.32619355750212     -0.88259433725926      1.62013581968710
  H   9.16688943879454     -0.30737710427093      3.43578575737383
