22
Coordinates from ORCA-job 19227optt
  Br  0.87160487581905     -0.96422101065373      0.73472255322934
  C   2.70361940468256     -0.65226337596040      0.41332935864323
  C   3.16285347241670      0.63599279993185      0.10505509604779
  S   2.25559917797108      2.09032219406249     -0.04376977686233
  C   3.71733215527069      2.95755396857744     -0.40768645367944
  N   4.79922785622431      2.24879037599029     -0.42231787319406
  C   4.52206362428273      0.93620713171091     -0.13904740082508
  C   5.41231135364244     -0.13245789213314     -0.05370872821128
  N   4.93058375067112     -1.41950161591386      0.23505329500055
  C   5.98498106916758     -2.42652828271821      0.23930370298842
  C   7.16874373524165     -1.58228483803129     -0.11526562231468
  C   8.53109972032143     -1.58997842003530     -0.35134917299923
  C   8.83078052487456     -0.24479648215659     -0.63058144119002
  N   7.75456425806767      0.54729777866940     -0.57659824429671
  N   6.76618336396682     -0.29306049658159     -0.26365278837697
  C   3.59813434015888     -1.75821719102276      0.48605002779691
  O   3.32865444856104     -2.93511908219286      0.73376725216022
  H   3.68875815903252      4.01977814290577     -0.60086963794398
  H   5.77100415531063     -3.21819189147846     -0.48662293056818
  H   6.06470228353293     -2.90625451507575      1.22151820431136
  H   9.20517010561578     -2.42819887839720     -0.32764238888950
  H   9.78902816516776      0.18813158050298     -0.87068703082636
