19
Coordinates from ORCA-job 19228optt
  Br  0.74568075234126      0.90892654716991     -1.06125237489334
  C   2.53388255419102      0.62351137488500     -0.50709543987619
  C   2.97955368399412     -0.66588731650527     -0.22397556505481
  S   2.05384154212878     -2.13295204325532     -0.30409437297375
  C   3.46157663018819     -3.03948671051392      0.18958038532252
  N   4.52980774697022     -2.34644675046187      0.40169448152353
  C   4.30340845471867     -1.01993609629293      0.18097908992744
  C   5.18716327439048      0.07704501010468      0.29566790349651
  O   6.49869100699031      0.15482837440351      0.62386391781398
  C   6.84493596643876      1.51154494192276      0.55508126848741
  C   5.76544635311213      2.25250472911025      0.19560066329038
  N   5.38854468297866      3.56753478607149      0.03374591069810
  N   4.13436223776552      3.91774141942544     -0.59811326607786
  N   3.20384472626072      3.00051066785462     -0.71219217588974
  C   3.42785282436319      1.71640714520314     -0.39901455045195
  C   4.71246797228237      1.32416298557453      0.02880579078024
  H   3.40563075807340     -4.11225020090987      0.30380261213704
  H   7.86537783303620      1.73583997242132      0.80469342218866
  H   6.07793099977592      4.25440116379250     -0.21777770044816
