21
Coordinates from ORCA-job 19236optt
  Br  1.54114501551121     -0.10878454683148     -1.46426319612375
  C   3.02373029451557     -0.08879596096225     -0.22590784253142
  C   3.70894548486170      1.11242389689666     -0.08842928204314
  S   3.12229209616784      2.73299412441819     -0.12310330260634
  C   4.74412871435379      3.27397760229001      0.18443318578555
  N   5.64946725768203      2.35958151408062      0.28367551609498
  C   5.09471343271917      1.11427422072813      0.10931076876808
  N   5.83695558649229     -0.00652044322235      0.04468909472913
  C   5.20606967563100     -1.15614315949183     -0.06503667999543
  C   5.92855965043908     -2.36937536556234     -0.15785172950495
  C   5.24170562788684     -3.59707774251541     -0.16970092630708
  C   3.89618702763469     -3.66908062294845     -0.01140571511274
  C   3.11384972479113     -2.47652728281192      0.19525534710563
  N   1.89011558793314     -2.40335090026701      0.57101157653543
  N   3.79359935475056     -1.25301074962397     -0.07530054330568
  C   7.34432372770643     -2.35257070874116     -0.19658770437341
  N   8.49506100161970     -2.41944959899287     -0.23421941748456
  H   4.95000886999976      4.33151831302958      0.27082740547132
  H   5.82468593662816     -4.50443898998938     -0.27520621230251
  H   3.37773262598562     -4.61634777725007      0.03428380365277
  H   1.52772330669026     -3.34629582223268      0.68352585354814
