19
Coordinates from ORCA-job 19234optt
  Br  1.05752560792914      0.13350238030172      0.10420265730476
  C   2.94183713286802      0.07818836589290      0.09903199972565
  C   3.61972595430042     -1.13671995176644      0.09927139642764
  S   3.00446765296334     -2.74251454153019      0.10269117007867
  C   4.63291879300978     -3.35272698279495      0.10090055553210
  N   5.56391769123773     -2.45096413712232      0.09795995248270
  C   5.02589674235033     -1.18605861540637      0.09702339710622
  C   5.73602017440854      0.02238540421341      0.09446075815676
  O   5.04323476207152      1.20775602176785      0.09340081999608
  C   3.65528503621640      1.30809795444679      0.09563702006321
  O   3.19682748313660      2.42891035816694      0.09445708648831
  C   7.15686102005339      0.13720056833648      0.09328610027518
  C   8.11043257693179     -0.87005772214446      0.09428294845459
  N   9.28511248713760     -0.19720887909523      0.09284947370203
  N   9.10265760273881      1.11883165014750      0.09096672493138
  N   7.83146297547916      1.33784883538265      0.09123351803052
  H   4.82005268289280     -4.41629512635836      0.10224817271097
  H   8.02144203976374     -1.93948629845088      0.09606485404786
  H   10.22032158451084     -0.56368928398703      0.09303139448534
