22
Coordinates from ORCA-job 19240optt
  Br  1.15775802340373     -0.23431962276723     -0.01139603032083
  C   3.03815298624840     -0.08541209866479     -0.00721794052226
  C   3.65173768149735      1.12761079535399     -0.00740353574817
  S   3.17769666069306      2.82361329224602     -0.01057417623046
  C   4.91515022422223      3.42556206515632     -0.00875076827099
  N   5.08996399584369      4.68871153636533     -0.00995078818285
  C   5.77525162854410      2.26514240353738     -0.00612155902395
  C   5.04766669431534      1.10146417891581     -0.00523669999813
  C   5.89430620012249     -0.01806097752193     -0.00287431450731
  C   5.29179615548697     -1.24890563558911     -0.00207664697353
  C   3.83197748083312     -1.34267365360185     -0.00419502211789
  O   3.26817327063850     -2.44724805175321     -0.00364346109350
  N   7.21542438919308      0.44261821959496     -0.00226930033056
  C   7.13584828430429      1.76442520600572     -0.00425806599590
  N   8.25654064135744      2.57275822119133     -0.00487946480282
  C   9.58523667217381      2.17618465909213     -0.00413393391334
  N   10.06993913550235      1.01068535251847     -0.00260622485891
  H   6.08342654951596      4.91227289337317     -0.00864623562665
  H   5.82772647916985     -2.18876417485877     -0.00018460225251
  H   8.08523818442557      3.56283336822853     -0.00658653342015
  H   10.25178887054426      3.04042213736545     -0.00506141016917
  H   9.31719979196435      0.31907988581227     -0.00193328564013
