22
Coordinates from ORCA-job 19249optt
  Br  1.21198781471272     -0.94863544735508     -0.33321770052648
  C   3.01038630401217     -0.41409309411794     -0.37101995835996
  C   3.41211347008032      0.85292675844000     -0.31248291929209
  S   2.52395510490931      2.34943546029277     -0.23902749951004
  C   4.06386000968036      3.29166695729147     -0.09189678337599
  N   4.17134162006103      4.59694545156531      0.01637815927177
  C   3.11056565622531      5.43291907384229      0.03756232399331
  N   1.81877624299836      5.08049340030326     -0.05874657216280
  N   1.13255874293337      6.23951340837173      0.00935094605286
  C   1.93537180634377      7.31919704137198      0.14752728027584
  C   3.21887798931305      6.85516420740514      0.16993679129992
  C   5.20312248428454      2.42915031783218     -0.07340849160939
  O   6.39102623789388      2.69116560817602      0.09440326463569
  N   4.79921188544217      1.06323770840567     -0.27137470353973
  C   5.53433401774469      0.02715774959676      0.27840867290122
  N   5.17321562650501     -1.19055218947848      0.26484951781183
  N   3.99554577513550     -1.44456147081916     -0.49695362951784
  H   0.13149980282389      6.21832974764548     -0.03582401689029
  H   1.52943863688919      8.31522045670295      0.21890174096733
  H   4.13157791933357      7.41647608511253      0.26388089317630
  H   6.45440373271196      0.32103358097436      0.76664769149562
  H   3.62682911996580     -2.32919081155928     -0.17589500709706
