24
Coordinates from ORCA-job 19259optt
  Br  0.94027160401848      0.12509782361543     -0.07649761103215
  C   2.87543250997548      0.07702976651606      0.01869939405764
  C   3.50555340733341     -1.17463595806406      0.04377878905434
  S   2.55325690921548     -2.65179870922359      0.02029849929715
  C   3.80621837086897     -3.85742385837528      0.06610035763734
  N   5.08635354050176     -3.67597126022500      0.10458937015129
  C   5.63156730377618     -2.44965353597320      0.11719913523891
  C   4.91975098278864     -1.21886319078089      0.09131861304004
  C   5.59551831232633      0.02010108564124      0.10888451527489
  C   6.94796188540229      0.39267304424883      0.14503368512948
  C   6.98945426630892      1.79841001482644      0.15617790534230
  C   8.22438935700159      2.63796287130807      0.13415335305343
  C   9.25732999174250      2.43045697287673      1.20978081163636
  O   9.26403805859564      1.58937033712653      2.06260192819584
  C   5.69187026206018      2.32781653326892      0.12858086323546
  C   4.80674353518490      1.23851094530603      0.09532282292046
  N   3.45998811476955      1.23721433492268      0.04623847870435
  H   3.41422350861652     -4.86874257435537      0.05874068220045
  H   6.71192979331722     -2.40977906951807      0.15524624138908
  H   7.80633040562683     -0.26052746151453      0.19236769176500
  H   7.96905583577406      3.70384602528318      0.16011289187373
  H   8.78524124498455      2.51238281864178     -0.80513707570952
  H   10.10050865202106      3.15663104656272      1.15000075412692
  H   5.41901214778939      3.37289199788536      0.11940790341722
