27
Coordinates from ORCA-job 19265optt
  Br  1.19324576782597     -0.37031255317347     -0.22401994396449
  C   3.02522334669797     -0.02401731771706      0.02126185340082
  C   3.57641511130703      1.20149040475339      0.07857071415604
  S   2.78725753112898      2.75296589925215      0.06100164008238
  C   4.37864862476295      3.65665989489138      0.18987051674761
  N   4.43665002939954      4.95517762161531      0.23630010166736
  C   5.41127039169380      2.70617590068206      0.22068121764613
  C   5.00522607740309      1.36498887688845      0.15071734419120
  C   5.75028038523461      0.15841617272003      0.02618562379646
  C   5.14840163570619     -1.04976991416381     -0.03203410818640
  O   3.76450952505023     -1.19117811789908      0.10631683568165
  C   5.80467089426648     -2.37822143704340     -0.18655329823604
  C   5.29715552690203     -3.10937133061858     -1.43164480857344
  N   5.90531522275360     -4.43001939720942     -1.47270961076269
  C   6.15460084769474     -5.10240309855956     -0.30502636349636
  N   6.05352007249660     -4.65601044897095      0.87725142587185
  C   5.58255129797938     -3.28214441781129      1.03704142891116
  H   3.51268056691370      5.37280649548048      0.19225363599217
  H   6.44214565430657      3.02727552652194      0.27809651354654
  H   6.83041920840886      0.18606083555620     -0.05907921937388
  H   6.87825639625063     -2.21021943684078     -0.30369041735726
  H   5.57411813864748     -2.55431006578145     -2.32823604582195
  H   4.20582468953144     -3.17026526253459     -1.38790458924040
  H   5.81658956791413     -4.97741062054466     -2.31052037535801
  H   6.50357471486029     -6.12419815375804     -0.45277095926384
  H   6.08794035735581     -2.84447852618340      1.89903816826700
  H   4.51550841750779     -3.30068752955183      1.27660271967638
