20
Coordinates from ORCA-job 19267optt
  Br  1.26499786764420     -0.28890843229387     -0.25226263206607
  C   3.11707720284938      0.03068249834636     -0.06332038006555
  C   3.63518929017591      1.26364030910933      0.04683906010523
  S   2.81593537644761      2.79619455445713      0.05867753583064
  C   4.39329953048039      3.67601978037891      0.18626432846073
  N   4.48596548975042      4.95015437242636      0.23831955704431
  C   5.46801093108636      2.72738583041137      0.22580518562238
  C   5.09172346213605      1.41081368319410      0.15635898413162
  C   5.80422998193345      0.18052969147142      0.17600662742919
  N   5.24857914228659     -1.07717252589058      0.07903396961624
  N   3.89011621374647     -1.08170425535630     -0.02763256249168
  S   7.50408316765638      0.10984109410851      0.06231959325381
  O   8.11187428301159      1.40249256546525      0.28283090088052
  O   8.06715195929392     -1.03882894250695      0.72934424832676
  C   7.88976607444967     -0.23476321797942     -1.70170482314700
  O   7.09608143483619     -0.24542131084467     -2.58562021472921
  H   3.57547700804859      5.39993572327903      0.20095027566005
  H   6.48421563222263      3.07277416487817      0.31345243097657
  H   3.48509301493889     -1.97992053916241     -0.22202361741424
  H   8.97513293700521     -0.41774504349176     -1.84363846742432
