23
Coordinates from ORCA-job 19269optt
  Br  1.21432879710837     -0.67711294934470     -0.12970890178433
  C   3.09443841491407     -0.44124380646070      0.06706542510914
  C   3.66176422087630      0.83672861963189     -0.03636743078216
  S   2.95562556270647      2.38501207912167     -0.40049177351342
  C   4.54247164977957      3.23751208807174     -0.26028663368336
  N   4.70218002985629      4.50907795996904     -0.42330008805503
  C   5.53871260717265      2.26709727219172      0.04902659995354
  C   5.03776279485001      0.98511090783451      0.16256221105582
  N   5.78797289989516     -0.17578829379121      0.40805647319532
  C   5.07216143006046     -1.34458631712010      0.70564252399979
  N   3.80386219484691     -1.49756585195079      0.47127538574641
  N   5.91594032579313     -2.40815429117040      1.10028855858261
  C   5.32626444130054     -3.71621400420356      1.15693747603672
  C   6.23986572776672     -3.38706877934271      0.02675227289946
  C   7.58130186061701     -3.89933279236594     -0.03413323696331
  C   8.69985984877754     -4.33042545973975     -0.09057966006678
  H   3.82283358915885      4.96855736591265     -0.64133375065191
  H   6.57665747025869      2.54384217388572      0.16113981472028
  H   6.65251973311609     -0.06542432601792      0.91788418152579
  H   4.27070585653078     -3.78304082386100      0.92481935134681
  H   5.70242600818081     -4.35293100345430      1.94734352855090
  H   5.76100373279806     -3.19318158743836     -0.92609974041483
  H   9.69434080363546     -4.70186818035748     -0.13749258680746
