21
Coordinates from ORCA-job 19261optt
  Br  1.29045954698774      0.60791676029780     -0.10738740838812
  C   3.09854801273795      0.13789043012656      0.03531196291632
  C   3.55673446436746     -1.11533064681527      0.01629195923029
  S   2.66806629344341     -2.59953577940564     -0.15521430500718
  C   4.19190841633238     -3.57741640989976     -0.03532358317254
  N   4.23145167049835     -4.84661835011935     -0.09073090838641
  C   5.31151517663711     -2.68199070375202      0.13306694672229
  C   4.98399340732663     -1.36496294239933      0.15892486062885
  C   5.81143251265365     -0.21358274017296      0.34199948717837
  C   5.23502465486269      1.01141011441152      0.33639615833540
  O   5.83120839391682      2.16373504426925      0.50651581051509
  C   7.20861666393973      2.35557699487633      0.09376756865392
  N   7.53639426941012      3.56860447098080     -0.22796483040780
  C   8.09015890395646      1.25339907751372      0.10630233552145
  N   9.36619578046140      1.28309654948657     -0.19529731014243
  S   7.52869953219690     -0.36070219613318      0.64538592964716
  O   3.89784545614763      1.21070405537574      0.16232958670234
  H   3.31141738892486     -5.26176584826776     -0.21094516640219
  H   6.31402833836846     -3.07083282728506      0.22738415453027
  H   6.72202337968281      4.17298128646862     -0.18371073669070
  H   9.59827773714735      2.25242366044345     -0.41410251198438
