20
Coordinates from ORCA-job 19262optt
  Br  1.19652384001127     -0.45854424859050      0.00267595744317
  C   3.07954604459174     -0.22941107834880     -0.08052504821943
  C   3.62387653292270      1.04359093674098     -0.04746788273629
  S   2.76743178423894      2.54789856221610      0.05045828824859
  C   4.29692768785078      3.49061984393634      0.02589351812515
  N   4.36683341850256      4.77513115522961      0.07443457173898
  C   5.39396131947321      2.58033145194386     -0.05864093899547
  C   5.02729154538110      1.24980845751832     -0.09872279578761
  C   5.91244311277225      0.09817188302541     -0.24190018176627
  N   7.16552870619159      0.35749102963900     -0.51576226638152
  O   7.86691404293078     -0.83446747200262     -0.80052099555969
  N   8.13818942623388     -1.46633925431481      0.48796491578442
  N   7.28083411220287     -2.26447065464686      0.77736117026906
  C   6.08202156434159     -2.42367395416471     -0.04094467271498
  O   5.73463987947025     -3.53993509394906     -0.33959028083059
  C   5.29927395222145     -1.20231540883401     -0.15751245856337
  C   3.91075937504846     -1.33693021571165     -0.12794504156279
  H   3.44370305077593      5.19993609245989      0.12666676337745
  H   6.41335133870975      2.93210909956229     -0.09271843969503
  H   3.49594926612885     -2.33600113170879     -0.10320418217377
