24
Coordinates from ORCA-job 19270optt
  Br  0.77348476398645      0.14418809353229      0.40345355381197
  C   2.65618986275536      0.05022669332829      0.16422872376192
  C   3.38074204291758      1.25366459789547      0.08546670345292
  S   2.87118989921084      2.91079376433595      0.18429766862175
  C   4.55593970554578      3.52835418679074     -0.05142700737919
  N   4.86372387703349      4.78297801759462     -0.07414115799491
  C   5.42152604117546      2.41037923665642     -0.19554408832734
  C   4.76508315856670      1.19168489840927     -0.11209867082563
  N   5.33768863550327     -0.05644612339029     -0.15694212230116
  N   4.63628236136345     -1.24530085121606     -0.20164087527347
  C   3.32510231153381     -1.16143262345747     -0.00740776733852
  C   2.59277841043178     -2.48437902824471     -0.03582623298678
  C   3.44291592952550     -3.69726127986343      0.40285513781692
  N   2.96492787673598     -4.74493127798200     -0.51495467263452
  C   2.36572187411408     -4.05354967174126     -1.56529192749543
  N   2.10451192771461     -2.82895819146867     -1.39285462729976
  H   4.04346063178599      5.36735510640842      0.05744516624755
  H   6.48457479523430      2.53917012098226     -0.33638916008042
  H   6.28460251365579     -0.14377781405911     -0.47865676474757
  H   1.70901775578391     -2.40071947570049      0.59963499522243
  H   3.26200146592102     -3.97034292196288      1.44106084174988
  H   4.50144725007882     -3.48627830594019      0.25360228541781
  H   3.63533902952897     -5.45030255388567     -0.78341975720023
  H   2.10774787989693     -4.59711459702150     -2.46945024421821
