22
Coordinates from ORCA-job 19276optt
  Br  1.15574757231285     -0.42001304498724     -0.06649140454327
  C   3.03471292712833     -0.21318157161811     -0.06366189994197
  C   3.65402462171759      1.01899837410089     -0.06288970214501
  S   2.62564048384258      2.44374381952468     -0.06396919462980
  C   3.70374464815598      3.87291469662751     -0.06158310257873
  N   3.15936973708309      5.04350247038060     -0.06117793915973
  C   5.10019751654649      3.64117119984299     -0.06038328556164
  C   5.70429629382772      2.40237281704538     -0.06030297476353
  C   5.08608742832283      1.13779820855450     -0.06130193542976
  C   5.87212624723623     -0.07313120370670     -0.06078598235486
  C   7.27853464897789     -0.04266571100787     -0.05976659337775
  N   8.43675364524267     -0.03399074298083     -0.05880477639534
  C   5.21019021915541     -1.32580885681467     -0.06118138198333
  C   3.83374697769806     -1.37169025394018     -0.06251675341431
  O   3.38659973954253     -2.65231760122189     -0.06255367268644
  C   4.49829804389750     -3.43778207353502     -0.06125130901067
  C   5.63134554937762     -2.69824898522478     -0.06039537814297
  H   2.14304663999464      4.98775410878419     -0.06206307699658
  H   5.71082857817065      4.53523517279134     -0.05931803643170
  H   6.78906237858786      2.39203362641011     -0.05921752967862
  H   4.31712485939205     -4.49849534158262     -0.06107373456279
  H   6.64352124378938     -3.06719910744229     -0.05931033621121
