27
Coordinates from ORCA-job 19274optt
  Br  0.83563960370519     -0.00759756683947      0.63757840663772
  C   2.70548264631950      0.07895597918231      0.37584176870845
  C   3.38906420397869      1.21981320755259      0.24964341200973
  S   2.82738798156669      2.86081956692151      0.35389561187841
  C   4.51005881504632      3.50518631361664      0.15055392920604
  N   4.78888825456935      4.77846900806660      0.19592373605993
  C   5.41373337306424      2.44256002541133     -0.05025215123714
  C   6.85791504543112      2.84804719311618     -0.18082965056841
  C   7.89990726775354      1.74986747354847      0.00730618495088
  O   8.09461922008498      0.96186513621079     -1.16161713296799
  C   8.36669490837144      1.75351283175336     -2.27757382078844
  O   7.34531580994610      2.64611174197715     -2.57060069010661
  C   7.16028494883773      3.56749711387106     -1.50079928444650
  C   4.82141781918644      1.15873300588000     -0.01296175106770
  C   5.29129922773753     -0.13236177695626     -0.34184874945512
  N   4.61908364998540     -1.25400746936766     -0.23663766472510
  N   3.36598447846522     -1.16135111245273      0.39976511286997
  H   3.96213244621912      5.33666355037523      0.38158291444332
  H   7.03463689992399      3.59737935358558      0.60179749211560
  H   7.61196246138851      1.05979204543212      0.79968769252813
  H   8.86310474507568      2.21048478236640      0.27211555614867
  H   8.47541919493626      1.08148174520898     -3.12683385662629
  H   9.30489539748186      2.31299287307720     -2.10292934488603
  H   6.33659338900770      4.22369866335534     -1.76692396926371
  H   8.07972376826237      4.16503520680525     -1.39734250616585
  H   6.27112474231886     -0.25118863672719     -0.78660078110726
  H   2.78462970133602     -1.92946025497086      0.09805953585531
