27
Coordinates from ORCA-job 19281opt
  Br  1.09477449993626      0.79076321811986     -0.83082068144195
  C   2.88486702665430      0.37534382450949     -0.29865098636566
  C   3.20537035566752     -0.91170916589471     -0.06934426252664
  S   2.43930371005104     -3.01570675743756     -0.67887612793292
  C   3.94268678715192     -3.41375829755312      0.08857572062663
  N   4.21741512919277     -4.75952823276433      0.26871518566385
  C   5.55279308878465     -5.20633157360547      0.60285107477716
  C   5.86155489335455     -5.05217442456777      2.09154464621830
  C   4.83826132950472     -5.77034880582926      2.97548005819308
  C   4.86584446237341     -7.22005138948367      2.77912753427858
  N   4.91555726838062     -8.35357130159419      2.61102845293055
  N   4.82426396381075     -2.57276074386024      0.51841252184305
  N   4.45542083822420     -1.24696743307317      0.32448747719479
  C   5.40195677143698     -0.28942587880807      0.51400754401856
  C   5.12562083243701      1.01430705663673      0.29469460374127
  C   3.81692932734792      1.47977410277417     -0.15276408941033
  N   3.50202945060995      2.71282060485891     -0.38821606486685
  H   3.65792525133772     -5.35538639971902     -0.31894337045563
  H   6.30129815867560     -4.64514200544733      0.03487765842253
  H   5.62581044434125     -6.25975993861685      0.32385854123476
  H   5.84241248042106     -3.99232388084957      2.34132823383074
  H   6.86363817480213     -5.43691720887170      2.29383593650036
  H   3.83670380249100     -5.41214521854524      2.73069695319476
  H   5.02190025938575     -5.56996166987136      4.03154479105691
  H   6.36478588235809     -0.65706040460512      0.84211669289961
  H   5.90477789973582      1.74924411567173      0.45370615417991
  H   4.31309791153287      3.30477780842697     -0.21727419780546
