20
Coordinates from ORCA-job 19289opt
  Br  2.89427184198886     -1.23320099715946     -2.04598678507976
  C   2.83076342876677     -0.07480229299571     -0.53909293454761
  C   3.16169159638342      1.21715126316620     -0.60459327924948
  S   3.39486738899898      2.11352282295261     -2.09925407029824
  C   2.22197157794877      3.44754691956702     -1.98861982271110
  N   1.16724753824383      3.64575298203142     -1.29852481671595
  C   0.60912359418839      2.69665926067143     -0.49254794859869
  C   -0.16822568427902      2.99725679393919      0.60684639695927
  C   -0.40517417366401      2.05514430978480      1.61751872215296
  N   0.20459691096137      0.81888970133820      1.67242389121807
  C   1.48766164467196      0.79434826348697      1.48158410325914
  S   2.14182875408457     -0.81914611424109      0.89163014533670
  N   2.35693104888991      1.77334353597926      1.61663716041682
  C   3.31097207750153      1.99943573172052      0.70544958512776
  O   4.23028423076405      2.79206569655731      0.79944513847583
  C   -1.40663226713516      2.33162820267069      2.59925374274273
  N   -2.21706022700680      2.56073760398748      3.38576084211910
  H   2.53374473493672      4.22638534999235     -2.68109724889111
  H   0.80336304964679      1.65487124807424     -0.71896227928612
  H   -0.55122706589108      4.00340971847641      0.73012945756965
