24
Coordinates from ORCA-job 19288optt
  Br  1.02489822399497     -1.57562214584936      0.44759593341196
  C   2.91017059975225     -2.13987090002796      0.48792753980303
  C   3.64983904099448     -1.44170121488658      1.57950881990358
  S   4.67274138010027     -0.05418360943752      1.23054660730688
  C   5.70039486237216     -1.16282877594877      0.14902006241527
  N   6.98926589490055     -1.18318883871281      0.34568221129712
  C   5.00414119539380     -1.98279366778849     -0.77129553464886
  C   5.77527357959536     -2.98448322849305     -1.54713670322291
  C   6.37432491079230     -4.03590432178974     -0.99164615450866
  N   6.45220462371312     -4.26131895877467      0.42224250314191
  C   5.38211185167425     -3.91233356054142      1.22324789000146
  N   4.17102362482392     -4.18367583319279      0.94791438418715
  C   3.15903282436981     -3.35076796704568      1.52150488767851
  N   3.68631576479692     -2.32975644602356      2.50045636867802
  C   3.59258452935412     -2.15476595878232     -0.81719259753776
  C   2.97106853606847     -2.79920219988846     -1.90082261889885
  C   2.41954440703461     -3.33018987787655     -2.83803500524331
  H   7.25053430332262     -0.52586301365610      1.07337827045025
  H   5.74469584427745     -2.94312118101795     -2.63171619285738
  H   6.88403922829241     -4.77181290128801     -1.60213227800367
  H   7.30295178892536     -3.85077497542465      0.79047302241316
  H   5.67316598893186     -3.33740232853516      2.10490647011324
  H   2.28290826033186     -3.90857708903259      1.84670853532404
  H   1.93576873620536     -3.80486100598110     -3.65513642121396
