23
Coordinates from ORCA-job 19295optt
  Br  0.05879720191154     -0.08975198698354      0.92109023165028
  C   1.71014254838036     -0.48749492797454      0.08588547554536
  C   2.75164962326203     -1.16133830300413      0.81542805578057
  S   2.38886672161324     -2.53597680885684      1.85430109805747
  C   1.44985578381979     -3.65064830422179      0.79441812603576
  N   1.04624659593561     -4.73243877052961      1.32629030195061
  C   1.10687448598275     -3.13761347539210     -0.55417305301018
  C   -0.16512055502314     -2.78426377830461     -0.76485552142835
  N   -0.72761998541953     -1.97915222144265     -1.74435456033701
  C   -0.30957626795704     -0.74451306244155     -2.34743824276930
  N   -1.16782482373524     -0.08721553557559     -3.04543771924432
  N   0.98466723471147     -0.34692176124632     -2.30595601794557
  C   1.82635554248050     -0.40336887727985     -1.30477345597793
  N   3.16749760347929     -0.40047245560392     -1.72367696820496
  C   4.20612325661523     -0.69449140184833     -0.87231914272052
  N   4.04355827891884     -1.12090099410471      0.32428938344250
  H   0.51077594008508     -5.26183078600374      0.63729290545297
  H   1.90901972990257     -2.82715745890738     -1.20941048422934
  H   -0.89568806092099     -3.11305866816005     -0.03078049987783
  H   -1.73344341684762     -2.00404958019684     -1.71104202989588
  H   -2.05836888070213     -0.57644057659261     -3.08233774304166
  H   3.29911571434213     -0.37609371111774     -2.72227324051343
  H   5.20209572916524     -0.59780655421151     -1.29116689871922
