22
Coordinates from ORCA-job 19291optt
  Br  1.89002539431929     -2.57954039921297     -0.42036620809211
  C   2.62135260636543     -0.85423418229373     -0.12705496312521
  C   1.90520676365656      0.29478243595629     -0.41431005646424
  S   0.24324468389546      0.14999861223340     -0.98079232068001
  C   -0.53904539296946      1.39517441228761     -0.08776914901149
  N   -0.10046205829040      1.90889617035869      0.99384925903031
  C   -0.40759291211400      3.20722661298263      1.28213045670156
  C   -0.32647805584268      4.20735082012874      0.38162756063446
  C   0.05908092633779      4.04466539767957     -1.03902827959643
  O   -0.42909573303950      4.70012872945539     -1.92098831729786
  O   0.99381103873966      3.10410542789782     -1.37078607130176
  C   2.06031774892224      2.83820170636951     -0.53590507553555
  C   2.53372755461679      1.57874453172534     -0.22504670966358
  N   3.77510962351029      1.62118762436901      0.38198144893455
  C   4.40183959934703      0.53019979676588      0.66805488068323
  C   3.94761304133561     -0.82898229374011      0.41154584956329
  O   4.64864502692340     -1.82548421420641      0.67412434350005
  H   -1.41684092693651      1.80541137561131     -0.60010077298461
  H   -0.65144387650106      3.42821998574626      2.31693234899841
  H   -0.60233675997327      5.21345493335713      0.66321944151509
  H   2.63628757678372      3.69762372090729     -0.22427326331057
  H   5.37803413091361      0.61586879562132      1.14195559750247
