23
Coordinates from ORCA-job 19296optt
  Br  2.07268545178325     -1.79389038091432     -1.02164953727922
  C   2.82790130853090     -0.24823808360616     -0.17011323588794
  C   3.07041106178679      0.91758856753733     -0.78797121175558
  S   2.43171229258207      1.33016894149402     -2.37129680172745
  C   0.91470332690262      2.16672873957973     -1.87760586878397
  N   -0.11825325324359      2.17588503286087     -2.61351509618714
  C   0.96535556231031      2.86108394165610     -0.57480144149582
  C   0.16563669602974      2.48213093745299      0.41455626514665
  N   0.18014548310592      2.94974683122211      1.72955535512984
  C   1.12241741683814      3.62220871582978      2.48276787483790
  O   0.75379462243313      4.38630844833279      3.34995516244522
  S   2.88488161342709      3.32556612212344      2.37224223659200
  C   3.13488486005138      1.87322803459405      1.42195805464015
  N   2.74648599482496      0.72094768083491      1.99262388772689
  N   3.05055883403241     -0.38243213172951      1.17035159886791
  C   3.61588373012739      2.00689199464979      0.07621693910778
  N   4.26289299908739      2.98819807896379     -0.48057769376509
  H   0.01970916265371      1.58766315009695     -3.43614723401980
  H   1.76569719570022      3.57590017947416     -0.42315849950182
  H   -0.60357108927891      1.73956301991726      0.23300238075021
  H   -0.72804436900434      3.04169711044837      2.16371786121838
  H   2.74772016611866     -1.24586058753130      1.58803803765999
  H   4.50739093320072      3.67591565671278      0.23085096628091
