21
Coordinates from ORCA-job 19297optt
  Br  1.18537443884167     -0.00010868877708     -0.32694853027366
  C   3.08541208945713      0.01978412003235     -0.17807989641823
  C   3.78156808222257      1.20176521151736     -0.14416581871835
  S   2.85817986880503      2.70705102773246     -0.23474687586944
  C   4.06662441696911      3.83010205858493      0.34971888269917
  N   5.32067215891642      3.64890018929168      0.36458616243450
  C   5.91962593488297      2.46771186849664     -0.03593661196092
  C   7.30736442235612      2.70048326197758     -0.37622536269349
  O   8.06697432705058      1.97147988475964     -0.99256818465337
  C   5.22103149155488      1.22688508984812     -0.09640870557300
  C   5.87651800660648     -0.04765021057501     -0.01837150163717
  C   7.18009432742448     -0.48583939011796      0.16255775620692
  C   7.17815911554396     -1.91502237812566      0.22040448883037
  O   8.04383823526969     -2.74500795543190      0.36334182986910
  O   5.83669192180406     -2.34111162716862      0.06376687863434
  C   5.07106169033278     -1.23649777714883     -0.05110367257837
  C   3.72093005200318     -1.24176790212726     -0.14004665668261
  H   3.65238896617525      4.77525503989640      0.68950425663350
  H   7.63191318615601      3.71149006580186     -0.06654033618065
  H   8.08391411165089      0.09047108020541      0.19659243814133
  H   3.15166315597665     -2.15937296867214     -0.15433054020997
