25
Coordinates from ORCA-job 19294optt
  Br  1.33627645674064     -0.50130519682103      0.28587103447095
  C   3.14374407861019     -0.11319242358844     -0.14131096404689
  C   3.63338748305341      1.17441861285983     -0.05013916769224
  S   2.67938541252530      2.64000415126179      0.01880418168285
  C   4.13511038101724      3.68908371710077     -0.03051874758776
  N   4.13026567128459      4.98823060840571      0.00879373557100
  C   5.29332489864689      2.86811306185328     -0.09152823927088
  C   6.65083037107235      3.50417640679593     -0.11246004455358
  N   6.98571742596596      4.28851293400488      1.08389149351837
  C   6.87782091723192      3.48416896418308      2.29362492214012
  C   7.22132930741710      4.25753035417770      3.48749030188799
  C   7.48013286706391      4.89128938430011      4.47172791152028
  C   4.99028486862318      1.50905470888872     -0.08737802893115
  S   6.18863601290334      0.24095888523706     -0.27565045158274
  C   5.27440786632354     -1.21557260486282      0.18340441652077
  N   5.86111863498187     -2.30270508762534      0.45610450214960
  O   3.93864752199298     -1.21274480161320      0.19178690852641
  H   3.18737315205391      5.36370002708940      0.03902088065379
  H   6.71891804621365      4.19418773793251     -0.95678384000425
  H   7.42499880919557      2.74158164148741     -0.24548175282667
  H   6.30570085559311      5.04383255723134      1.13352107019969
  H   7.57110755014010      2.64128990074952      2.20703885212171
  H   5.87691832598062      3.05071574626708      2.43248262241418
  H   7.71055006820830      5.45857764802613      5.34009558598006
  H   6.86801301716023     -2.17390693334147      0.44459281713836
