22
Coordinates from ORCA-job 19300optt
  Br  0.79620141587758      1.13141534621731     -3.28875608969662
  C   2.31839001933345      0.96843358995965     -2.14323145064178
  C   2.88951641797248      2.02240581118061     -1.54923433299405
  S   2.20537997384735      3.65844073166333     -1.59032799680672
  C   2.02474310302502      3.80122345387779      0.19580535246120
  N   1.43183576263066      2.98223440859458      0.95013919783426
  C   0.64336981624795      1.96018805332175      0.41417873729724
  C   0.62251604512021      0.67086906852055      0.73721049091926
  O   1.44064654620202      0.03413542155080      1.63344614982826
  C   2.23208647229113     -0.93202224509256      1.01112622534033
  N   2.07738376491919     -2.12605417662044      1.38421888820651
  C   3.14718470856767     -0.37506822269173     -0.01230939293574
  S   2.80906419698700     -0.67058853860247     -1.70978617152295
  C   3.90098547397054      0.75113134132880      0.25539626780253
  Br  4.76296790563588      0.88331951749671      1.98168146280328
  C   4.05103360990283      1.86807461476684     -0.60952162306250
  N   4.92253750894809      2.83572152063348     -0.55291705226672
  H   2.52498105636087      4.66191779872809      0.63025975675321
  H   -0.05450439293330      2.26532358490975     -0.36275159550560
  H   -0.07016816301118      0.01587707141042      0.21589634500169
  H   2.76737499952557     -2.69938822026425      0.90274293056383
  H   5.60447375857897      2.62041006911098      0.17273390062109
