21
Coordinates from ORCA-job 19316optt
  Br  3.81194165109927      1.76503814132480     -4.26068045247550
  C   4.02253916469750      0.71696762391607     -2.70765482932753
  C   3.77042891783938      1.17843865979121     -1.46865506406864
  S   2.90201843483326      2.67365121147376     -1.01598827829913
  C   1.37710035971078      1.84721994288050     -0.53718905146916
  N   1.16528384325687      1.13550386299639      0.56901005074407
  C   1.70716242220179      1.36545908119453      1.78843643783072
  N   1.73324024375133      2.48934032494411      2.40823923584546
  C   2.35429834213455      0.10992232807567      2.36385296183633
  N   3.46492078845152     -0.32806720283563      1.91402788883580
  C   3.94400152364896      0.53207906735729      0.89240179916920
  C   3.96473087079312      0.19652190167568     -0.39946015069405
  N   3.89454385756732     -1.11109371253207     -0.87628186260878
  N   4.28365574053371     -1.47224976500376     -2.10032659008097
  N   4.41131616353822     -0.59618717361821     -2.99284016982555
  C   0.53883355148220      1.60186064525238     -1.65744038554285
  N   -0.14433165678810      1.43902899700345     -2.57611407147898
  H   2.16734294961653      2.36603573454078      3.32301172109889
  H   1.85840988633655     -0.43352951434715      3.16806411326640
  H   3.95766997066080      1.58905630010216      1.11674311130089
  H   3.84989297463439     -1.87499645419196     -0.22015641405664
