22
Coordinates from ORCA-job 19319optt
  Br  1.43542408490074     -1.84568163185944      2.05153521088635
  C   2.78482117134905     -1.08771267880640      0.94245138483177
  C   2.50316688800870      0.07243538034071      0.15634285270344
  S   0.84947610575274      0.53201752347926     -0.18498664844050
  C   0.73427755374581      2.21857845752917      0.35269089414171
  N   -0.34209990479954      2.82797763186197      0.60493154631400
  C   2.04693925232116      2.93682075238081      0.29805335169218
  N   2.45431913982974      3.59155971573295      1.29979514192984
  C   2.76442312035133      2.82987440952532     -1.03512614280874
  N   2.61744270823274      3.77309963354806     -1.89413765389035
  N   3.62297137582244      1.79793665475054     -1.23503182651400
  C   3.59128327518081      0.68736286295517     -0.53050502719167
  N   4.80020849241658      0.02712119129556     -0.49473423061086
  C   5.04607566658769     -1.16135748916544      0.18684748521400
  C   4.00953503497452     -1.69999743359514      0.95781468949658
  C   6.32094610926966     -1.73326348879581      0.09556976568616
  N   7.38135203672494     -2.19611145991606      0.01695513233731
  H   -1.13903263728427      2.18990101561545      0.57199300673845
  H   3.35856273215133      4.01744174264057      1.08321319549354
  H   1.97509034628750      4.47172958561452     -1.52587205258471
  H   5.55153981646223      0.51002813661013     -0.96263066094577
  H   4.19327763171409     -2.58076051174190      1.55283058552127
