24
Coordinates from ORCA-job 19313optt
  Br  1.11925987781107     -0.07545823624294     -0.71405245285868
  C   2.99004485125216      0.07871855626413     -0.40810366543000
  C   3.75155855694675     -1.10480196855085     -0.31408540014609
  S   3.06074940717819     -2.69401162959441     -0.46560601907083
  C   4.59234282624592     -3.44571330362537     -0.12695438951708
  N   4.79689224541148     -4.82573358000648     -0.20220754309600
  C   3.95474685687584     -5.81570753012838      0.23987876718404
  N   2.83313040108875     -5.73618391194409      0.82679710096217
  C   5.57820179274875     -2.52983540166263      0.08193275794690
  C   7.00120841180291     -2.94255958301139      0.34652704493682
  C   7.53645246125595     -3.37308766248412     -0.98749949137931
  O   7.68945415804462     -4.52749586357275     -1.31110323402779
  C   5.13376721675003     -1.16468630534440     -0.04718070689184
  C   5.91913604215649     -0.02643760344004      0.09806071041049
  S   5.28283435406593      1.58096182555876     -0.04936970359355
  C   3.48016319007093      1.39074218655225     -0.31331905251460
  O   2.87245352492938      2.44812940068437     -0.39265520426361
  H   5.67275696259113     -5.12418290694507     -0.61067349100877
  H   4.36129343786683     -6.80408484695650      0.02470823938447
  H   2.55175335275864     -4.76994725260523      0.98956867824945
  H   7.05168403009557     -3.78262937598164      1.04074698372987
  H   7.56921192221129     -2.09899583829301      0.74016993576512
  H   7.70804514835935     -2.56014064974750     -1.71681671976503
  H   6.97685897148190     -0.07385851892265      0.31423685499382
