25
Coordinates from ORCA-job 19314optt
  Br  0.95055338341500     -0.01594546453071      0.29705245454875
  C   2.82649759092730      0.01398228828843      0.04666270294225
  C   3.55016865713523      1.22496873748198      0.12409877437364
  S   3.00515793328540      2.83256249244642      0.53137454146518
  C   4.65002662263693      3.53730135906561      0.38770897820447
  N   4.97532528985371      4.77280641547413      0.62695823904332
  C   5.52302031453357      2.49640006747768     -0.00346880089758
  N   6.90645602865976      2.73164421134053     -0.20444972454319
  C   7.72530624848295      3.05881573539661      0.92922005135607
  C   8.25732790769083      1.85175450545233      1.65258416144943
  O   8.10478381834305      0.70966480957424      1.31497549004109
  C   7.47495511668664      2.68669109180999     -1.42998342674158
  O   8.66273104901266      2.83160896418974     -1.65455886842197
  C   4.91797153912849      1.23462259598291     -0.10559727501351
  N   5.59304766271496      0.06627172136892     -0.43289008578393
  C   4.88667718181980     -1.14518126625174     -0.40442366518310
  C   3.53550867705570     -1.17105186221091     -0.20899275312708
  H   4.16706425586483      5.32481335176852      0.89617559444500
  H   7.14456052378447      3.67797857172011      1.62136412447616
  H   8.59109796942696      3.64646842758095      0.60607680168483
  H   8.84377281903393      2.08870597963012      2.56411065718927
  H   6.73049947298198      2.49420859965896     -2.21680894279599
  H   6.57312362423197      0.05793910477418     -0.17899026681606
  H   5.46604976586284     -2.03493093747856     -0.59485267856120
  H   3.01531654743089     -2.11809950001046     -0.24834608333426
