21
Coordinates from ORCA-job 19325optt
  Br  1.41720429311469     -0.21611117107118      0.98148720485044
  C   3.11484556286533     -0.50545011773101      0.18595204401481
  C   3.39206585334102     -1.60243442931302     -0.54097712605045
  S   5.11106948222369     -1.88850533475913     -0.98058494150779
  C   5.80987988130482     -1.84158578490989      0.63997918205394
  N   6.08766974321580     -3.13911246887442      1.26758308847811
  C   4.89475222037143     -3.75010522399517      1.58337648423963
  N   4.52132496620082     -4.88206180949729      1.12202641139181
  C   3.25339006333522     -5.41483905656721      1.21767525313341
  O   2.96570948869702     -6.47697004634886      1.67667912502407
  O   2.24518165020885     -4.69901519045913      0.54985737939739
  C   2.48334864844540     -3.36505982433741      0.40795184683066
  N   2.63719839999276     -2.80062988871591     -0.70743102492413
  C   5.50801543112920     -0.74566717737827      1.42795132389211
  S   4.47789924252107      0.49643494719897      0.81873270254399
  O   5.03985458148304      1.21368923630647     -0.29512852596692
  O   3.99319225405475      1.26468238418155      1.93949071551960
  H   6.64580973091657     -3.73085689953281      0.66202773704342
  H   4.29689242189801     -3.13399019440198      2.25360729149176
  H   2.57334654731710     -2.83623806607280      1.35392541532203
  H   5.62134953736336     -0.73317388372145      2.50281841322209
