24
Coordinates from ORCA-job 19326optt
  Br  1.17095709679042      0.21977423622455     -0.46036613895646
  C   3.04788065896871      0.20800989004771     -0.25340016193683
  C   3.69147361207771     -0.96109045814178      0.00750959036924
  S   2.84743483667720     -2.48120998721239      0.19861995106696
  C   4.13884683243880     -3.36574308339256      1.02322061879944
  N   5.38696418968934     -3.36004424979275      0.52946408659389
  C   5.81064285938590     -2.26471117039002     -0.10203659692914
  N   6.82048522611554     -2.13443564528919     -0.89324081508477
  N   5.06930443889906     -1.00442720526380      0.15766492742359
  C   5.74595266141521      0.19410099377599      0.25679015509783
  C   5.13096374663905      1.37795059873371      0.03150702148228
  C   3.73822368107377      1.48445219454595     -0.34134250083998
  N   3.11806603053003      2.57366424619274     -0.65014155848240
  N   7.09021388920307      0.16293875807166      0.64602684470004
  C   7.45621254771622      0.77305992189365      1.90709758916454
  C   7.50608979003240     -0.70308225921373      1.71342669338087
  H   3.77670151110333     -4.24546838590380      1.53964575525893
  H   7.24072088481341     -3.05759766486984     -0.97744283471756
  H   5.70804783985346      2.28445725444635      0.16166812169694
  H   3.77822072651482      3.34905251448452     -0.62989515428085
  H   6.65146276987613      1.16827179785529      2.51802051252290
  H   8.36579333397727      1.36087659579257      1.89286367355649
  H   6.73955365761816     -1.29503745502712      2.20318472608554
  H   8.44678717859092     -1.21076143756769      1.54615549402851
