23
Coordinates from ORCA-job 19322optt
  Br  1.31297942214035     -2.48553325198821     -1.03442706017502
  C   2.53190075972234     -1.11941894731797     -0.58230453619590
  C   2.16297578509961      0.20859456753703     -0.49543891737135
  S   0.49377728955601      0.68100879946354     -0.81830909440522
  C   0.29790399588281      1.44161752650984      0.78877001853809
  N   0.27395564497348      2.68285181901390      0.97816390500852
  C   0.47547648246239      3.52577554177392     -0.13504100174907
  N   -0.42913402360031      4.25730929689531     -0.62795400816940
  C   1.92436745031767      3.64545621228721     -0.60008506896329
  O   2.24751901020043      4.73516458000928     -1.07417089106192
  C   2.94303475415035      2.64404915813017     -0.37404042125615
  C   3.09083123938803      1.26203850689835     -0.21476216688344
  C   4.45263691459154      0.82186315492655      0.18349062562187
  N   5.39543389497771      1.51981753792975      0.69800844589575
  N   4.74756863711606     -0.51484151896507     -0.02270274208609
  C   3.89495927702793     -1.54766190463811     -0.36585228716297
  N   4.27125571870867     -2.77530183172887     -0.46472692846837
  H   0.22614944176042      0.75464775198140      1.62955978898726
  H   -1.30444725083732      4.09198728149673     -0.12903609167013
  H   3.89689068332166      3.15444057257109     -0.45774850705735
  H   5.09491096138149      2.47497258916190      0.85184273531752
  H   5.68419310554300     -0.76120261775209      0.26154377694580
  H   5.26586080611562     -2.85763482419569     -0.26277957363914
