21
Coordinates from ORCA-job 19320optt
  Br  3.78744051262027     -0.59467338619931     -2.87531520472001
  C   3.42116769127774      0.32065085375103     -1.27239005084871
  C   3.07054023192995      1.60804664040259     -1.16588429336105
  S   2.56567485669977      2.61863043800474     -2.55037727053916
  C   0.80843248545081      2.55471117863619     -2.17168093360765
  N   0.45343327941634      3.18471086822458     -1.03260557317053
  C   0.18417296624990      2.46746988998726      0.03409328892593
  N   0.17675673737997      2.97340347943866      1.25055073447058
  C   0.57944387514478      2.30004940177154      2.34078739890976
  N   0.17279569235307      2.39644438436680      3.54293289741464
  O   1.70925197574992      1.42142671887920      2.25530451916214
  C   2.40132473396506      1.17896137339263      1.13322907939162
  C   2.74006418841184      2.06903362993787      0.17725664751340
  C   2.80329567309891     -0.22663893276280      0.96869705105762
  N   2.63624561240682     -1.13591313997236      1.82536808703328
  O   3.49965937749292     -0.50253861415199     -0.20548856120084
  H   0.31965830392790      1.63925333110093     -2.51661637158005
  H   0.05622986295857      1.37783120789309     -0.09952668063153
  H   -0.63441662053117      3.01303645714644      3.53087850585349
  H   2.52819115487153      3.11867133965799      0.31338497457653
  H   3.02563740912502     -2.01256711950517      1.48340175535051
