21
Coordinates from ORCA-job 19329optt
  Br  1.61249680561990      2.20176755461084      0.95698746966904
  C   3.01847977212648      1.08365951889781      0.31919741160656
  C   3.01365699962822     -0.24851364953921      0.47894541816322
  S   1.86861080039615     -1.13733568771852      1.46140212317621
  C   1.31883159845042     -2.39703271277354      0.28360119527704
  N   0.08099904354037     -2.48964001128944      0.03644170598588
  C   2.29025222762295     -3.45428262365776     -0.21763779983166
  N   1.79300769225675     -4.49328719763543     -0.81163727097609
  N   3.61679009576572     -3.38348636677456      0.02148128050169
  C   4.38683954173852     -2.34479183096730      0.16030812289877
  N   4.11039550651736     -0.95501015788823     -0.03164775907558
  C   5.32444314375334     -0.26167973134128     -0.01492362471869
  O   6.34084113020378     -1.11244577504105      0.16605427732409
  C   5.81746899821974     -2.44302810026652      0.29166319020489
  O   6.57644401179494     -3.35934673379728      0.44253590404613
  C   5.35954276802265      1.07080452173438     -0.08293158217961
  N   4.10613994110288      1.75139529669557     -0.25917425054012
  H   -0.44260050546025     -1.73574646309913      0.47551891179526
  H   0.78305354866123     -4.37989846190984     -0.86433676800628
  H   6.25605258958135      1.64817650019362      0.07434034339746
  H   3.91725429045745      2.04272211156690     -1.21418829871821
