21
Coordinates from ORCA-job 19333optt
  Br  4.43723960711159      0.75943495461377      2.66240467082135
  C   4.62978678678350      0.30370223415596      0.81954145717405
  C   5.57024323810280      0.84618662126419      0.05328766990862
  S   5.63182765309558      0.16015792345103     -1.57649767515441
  C   5.56077656457150     -1.52748040798737     -0.99694158905110
  N   6.45660659497975     -2.44897951753010     -1.34867209775590
  C   7.75510451409379     -2.09954035959137     -1.53966613268271
  N   8.60892204256338     -2.61460739915859     -2.33307241290750
  O   8.24291816136573     -1.06402320637915     -0.72944913377267
  C   8.01499202681345     -1.18954428433388      0.60366743704387
  C   7.81360162445618     -0.16508134476929      1.43147373341478
  N   7.73505323532737      1.20459661625391      1.10904887486081
  C   6.72201744039811      1.66314824273756      0.50210094562767
  C   4.48295201546044     -1.82267648651288     -0.10573042182986
  N   4.06284492893899     -2.94296318051084      0.33068448646489
  O   3.81134943168988     -0.67623350816727      0.41285853807931
  H   8.11232146858052     -3.28993651851411     -2.90909900675212
  H   8.08899748349439     -2.19581967767671      1.00258115240155
  H   7.80290283050386     -0.37576233532371      2.49432480722496
  H   6.72369231047597      2.72464547233479      0.25523875317980
  H   4.60485004119294     -3.66622383835591     -0.14308405629540
