23
Coordinates from ORCA-job 19332optt
  Br  1.12473846647426      0.26408787767489      0.29887116581585
  C   3.00796268175875      0.07021931953642      0.20444283628258
  C   3.59663818516388     -1.21412890930069      0.12443677556388
  S   2.95483050019819     -2.81922515042171      0.05389121783958
  C   4.61688302528768     -3.47431130931820     -0.07866250815607
  N   4.72169031755947     -4.77368229277490     -0.17038245276750
  C   5.95026169918209     -5.35914951869705     -0.23758403188457
  N   7.14396428225551     -4.90228360108313     -0.21677213079980
  O   5.77993536766085     -6.72233907489100     -0.34100159412953
  C   6.98112133385467     -7.45345524661003     -0.38894637402902
  C   6.67097464171259     -8.88172307711713     -0.47478309756261
  C   6.46625392597242    -10.06029704373326     -0.54012438842027
  N   5.54807211162737     -2.50879937332554     -0.06034100791843
  C   4.96987046851453     -1.30561298492810      0.04748836108122
  N   5.72227409247703     -0.13690934955786      0.10204855209946
  C   5.03887719588743      1.07956568999178      0.03918757944483
  N   3.75038690185337      1.17903735537594      0.11863767437450
  H   7.10682042016738     -3.89161949261653     -0.13991569019633
  H   7.58733531103196     -7.25487788941012      0.49873532447402
  H   7.58536230435617     -7.15014317279846     -1.24814916147545
  H   6.26931208212344    -11.10266792829926     -0.60206665670611
  H   6.68536612169231     -0.19644471938530     -0.18533450854478
  H   5.65006856318854      1.96875989168934     -0.02867588438545
