21
Coordinates from ORCA-job 19335optt
  Br  1.69514654466780     -1.35268252695018     -1.53246127134040
  C   3.34765940068232     -1.11666880378232     -0.59493533646701
  C   3.52044401332735     -1.61403309452198      0.64986843974599
  S   2.45584060194772     -2.89431172583630      1.25967190090997
  C   3.32647156955311     -4.25756734180318      0.60017481989410
  N   4.41149839060720     -4.12001027704490     -0.03103763302292
  C   5.09101906239551     -5.24395665267085     -0.51833399335793
  N   4.93871977842610     -6.40389290379553     -0.01985627207029
  S   6.21070826680133     -4.90208099880629     -1.85840331161612
  C   6.02856255612776     -3.05198195538451     -2.18259273174614
  O   5.58980814742096     -2.72361007410930     -3.27156088433373
  C   6.39838997064306     -2.26733300689282     -1.06807502143769
  C   5.95340850391803     -0.96911933741562     -0.78638829093971
  S   6.07406017202676     -0.43328148373921      0.87706028165923
  C   4.63178353291773     -1.22692042994553      1.56242997847586
  N   4.49365543206856     -1.40171282039454      2.81509996361424
  S   4.53773974453963     -0.31287422487850     -1.57773225883593
  H   2.84801275025492     -5.22286278337095      0.78654159674091
  H   5.53357099757141     -7.08163319773313     -0.49137214083100
  H   6.96991649188842     -2.76263804460117     -0.29465199896926
  H   5.33258407221425     -1.10482831632311      3.31255416392784
