22
Coordinates from ORCA-job 19337optt
  Br  4.23408058775296     -0.28813680131427     -2.42906473034272
  C   4.67024031520366      0.06482051882999     -0.56553983533901
  C   5.85565433214095      0.82155449013582     -0.26227638740294
  S   5.85254961308788      1.21900753616749      1.45280207395671
  C   5.58946017797210     -0.39402775874414      2.16458635829388
  N   5.44824852447586     -0.71577289903805      3.37823264343437
  C   5.51596538664660     -1.38569905653750      1.03738886339144
  O   4.48648378831760     -1.14293558007691      0.15783690438770
  N   6.43193272481314     -2.22701392106311      0.88752936303630
  C   6.55140226536930     -3.04092569295468     -0.24647168120184
  N   5.66883872734461     -3.93379029857676     -0.46431282445752
  C   7.80368717591361     -2.96449159660145     -1.04544922486388
  C   8.82241446940636     -2.11314095870055     -1.27197060227537
  O   9.14457359937600     -0.87421514341641     -0.88880009176465
  C   8.18731715277909     -0.10348686824937     -0.20561372173670
  C   7.07061912784091      0.26640047661381     -0.82855073914805
  H   5.54337506011619      0.10600741876530      3.97710182266588
  H   5.93478106583731     -4.48978513514413     -1.27506401088503
  H   7.93905698282027     -3.87403129442248     -1.62065452347144
  H   9.59937295171605     -2.47986229425021     -1.93651725288270
  H   8.42063579686803      0.05003853780214      0.83744666023386
  H   6.98831017420140     -0.03451367922451     -1.87163906362829
