22
Coordinates from ORCA-job 19334optt
  Br  1.42452416356728     -0.08899994494145     -0.27346950368416
  C   3.28538750151497     -0.01551412100132      0.01722543407838
  C   3.95119093806558      1.13389803222537      0.29426707822489
  S   3.15272553723300      2.67612492363460      0.42785942847329
  C   4.35363217970994      3.86347745802895     -0.21615306469553
  N   3.89659414506391      4.83555777317683     -0.97778262726983
  C   5.72099493986614      3.78311918388538      0.16082145360567
  N   6.66647901321507      4.61876021187333     -0.16727474185380
  S   6.24973034326800      2.44154662096267      1.22608196153741
  C   5.39439965083772      1.06664609468366      0.55293914013913
  C   6.04827224943570     -0.10059765649985      0.40439339031120
  N   5.35931989187397     -1.25057752398583      0.08319720817507
  C   5.85826502829027     -2.53493615775710     -0.08797011101957
  N   7.03285106555282     -3.00573524615379     -0.02855347529993
  O   4.78400077732059     -3.31397447831152     -0.35475682879956
  C   3.63422880155288     -2.54038731769579     -0.34732609083432
  C   3.96926579657006     -1.26819026270314     -0.08129900260626
  H   2.92159651375808      4.68569882135358     -1.21945767791243
  H   6.22147737912737      5.37118174795479     -0.69677624419898
  H   7.11281479462994     -0.19872781628155      0.55793323449544
  H   7.71308047024923     -2.28214984224028      0.17313392908728
  H   2.70216881929743     -3.02422050020752     -0.56003288995339
