17
Coordinates from ORCA-job 19341optt
  Br  1.37698567846889     -2.05310234488212      0.12145886482206
  C   2.78028641925118     -0.78977651133638     -0.00876768060326
  C   2.56018160749808      0.54755453537174     -0.24060479732761
  S   0.91735224134764      1.13312335107187     -0.55355519008349
  C   0.87512462686383      2.45159445391683      0.65970601301220
  N   1.59334121979952      3.47711841867890      0.66326845406826
  C   2.55609617551692      3.76220362882434     -0.35171816261044
  O   2.52355778825849      4.87553202254291     -0.85793927093376
  C   3.61201120345964      2.81795272570975     -0.57590005315234
  C   3.67992018904224      1.43971119565353     -0.36563296096498
  N   4.95428251481825      0.92062078349380     -0.35469227407877
  C   5.14569660246730     -0.33760085575298     -0.13498264362987
  C   4.11396520266079     -1.33560969941500      0.09943128345834
  O   4.38254652666794     -2.52212312223217      0.33273511024759
  H   0.15529818852027      2.29852311099261      1.46278642424638
  H   4.53393630356250      3.27139786520046     -0.91802781324432
  H   6.16841751179649     -0.70811955783809     -0.13056530322600
