27
Coordinates from ORCA-job 19347optt
  Br  1.52260009554652     -2.18844581898601     -0.00534528604991
  C   3.35250109695159     -1.55772993654972     -0.14697514887871
  C   4.05734657560641     -1.32009189777377      1.00594563793258
  S   5.57039607253015     -0.45082402664719      0.80224504265277
  C   6.27614847539445     -1.28183651486160     -0.64527256237968
  N   7.55076286831526     -1.51060280795108     -0.74683178141206
  C   5.30554789182002     -1.70321762166269     -1.58145202869603
  O   5.73067918520243     -2.55653716158754     -2.61529346744355
  C   5.44020678538230     -3.85716785637558     -2.28897800315236
  N   4.75788283961766     -4.55421389549641     -3.09211513983412
  N   5.94459829686055     -4.27135523915081     -1.04931808592797
  C   4.96199203444607     -4.50438664735031      0.02823176621043
  C   5.44506916522741     -3.86435970063610      1.34767985972223
  N   4.39170002191551     -3.39922028014946      2.23210416959140
  C   3.83978402767689     -2.12917601071023      2.24401338540563
  N   3.16888172912096     -1.77563773879441      3.27254664538492
  C   3.91500051461741     -1.60924161245008     -1.42027882673159
  H   8.03416033207235     -1.18677643816906      0.08744389901478
  H   4.72128426639243     -5.50794274789023     -2.74005240426507
  H   6.67456956237790     -3.62857732748576     -0.75763190528031
  H   4.80371100091388     -5.57641477546675      0.17357590859809
  H   4.00083390770092     -4.06643278204274     -0.24255761516234
  H   6.03540064128114     -4.59212450642535      1.90735450613940
  H   6.11836880022417     -3.03962477301904      1.11519914656517
  H   4.27894834200508     -3.87866293890131      3.11144768781356
  H   2.78600205034863     -0.84976747791568      3.10929342365243
  H   3.29662342045174     -1.86263146555100     -2.27097882346970
