21
Coordinates from ORCA-job 19344optt
  Br  1.28982852417555      0.43559557333029     -0.13559682865564
  C   3.13128341315491      0.08143436619817     -0.21615360399186
  C   3.67383462462347     -1.11551168230717      0.06220564523252
  S   2.66728902241008     -2.43765849983807      0.60418276708969
  C   3.54526942181939     -3.90161241570355      0.02534513602629
  N   2.86381369209241     -4.99450204252658     -0.04415004155766
  C   4.96271288277945     -3.81337368504010     -0.21212145698353
  O   5.64062652808981     -4.82606660737832     -0.51214591202187
  C   5.71820027967744     -2.53613536824904     -0.04863672877578
  N   6.99820120476196     -2.52208529031869     -0.05020149283801
  N   5.06606240873842     -1.29663932708982      0.06999546659375
  C   5.79407812050283     -0.10120461557738      0.02725679338901
  C   7.11167959277952      0.24729101481929      0.19761240453979
  N   7.15657888513315      1.59612961702639      0.04222316327432
  N   5.96031640696059      2.14960343195976     -0.23267645649875
  C   5.15433590800037      1.12125978637005     -0.23753063347335
  O   3.82476596674927      1.24295452588309     -0.49544487030153
  H   1.87763280379493     -4.82540249832074      0.14434786087237
  H   7.27643561699917     -3.49569674418900     -0.17838366844188
  H   7.97338049745458     -0.36191166500461      0.38768752076989
  H   7.97067419930265      2.18053212595604      0.04218493575224
