24
Coordinates from ORCA-job 19343optt
  Br  1.06722242610984      0.07050008183392     -0.17012569416492
  C   2.95232002540480      0.12321333854436     -0.08936798179317
  C   3.71257610236093     -1.05306764627466     -0.10511703384492
  S   3.20056850623257     -2.71143587290315     -0.22059454812748
  C   4.87324987546568     -3.34724700731330     -0.07447045991878
  N   5.21703863600129     -4.59609622779371     -0.07562830500253
  C   5.73880867265706     -2.22963810409588      0.01952829878682
  O   7.10223972836543     -2.35286988952407      0.22579975101217
  C   7.79355775989456     -3.07796301839000     -0.67856682153044
  N   9.03573737527006     -3.26974052177586     -0.61026545557296
  C   5.10051862827858     -1.00075024309652      0.00563528191330
  O   5.77618870137732      0.17618376332504      0.11931046939410
  C   5.02542150658749      1.33537187001116      0.04179143988725
  C   3.66409722681833      1.34502514816718     -0.00923930628289
  N   2.97950105696206      2.57629835618098      0.00319839234247
  C   3.31814878151404      3.64924572194214      0.77398468706118
  N   2.78082524506151      4.80463706055309      0.79748124093114
  H   4.41089900981526     -5.20909932342570     -0.14457768671613
  H   7.18787237360752     -3.48947508384444     -1.48165407330677
  H   9.40496565272330     -2.81252212323685      0.22484171655697
  H   5.63782860887459      2.22137508422913      0.01939418296902
  H   2.10837681079230      2.61452560100659     -0.50498835452198
  H   4.15417811923266      3.44095585253706      1.43976949630829
  H   2.02285917059275      4.87057318334350      0.11686076362026
