23
Coordinates from ORCA-job 19351optt
  Br  1.16103812903710     -0.71132247880771     -0.98691813251571
  C   2.91388859800283     -0.19357717682752     -0.55009312446032
  C   3.25099039474531      1.05284705114773     -0.19764803312396
  S   2.29942960713979      2.49120223980533      0.01569913014646
  C   3.77360819084845      3.32211772382853      0.56125566310882
  N   3.77176519203499      4.70961150559907      0.71074239316027
  C   4.72838352743914      5.53874885228237      0.21480176957849
  O   4.79648839904875      6.72364154176380      0.47109928758930
  N   4.87865891696989      2.60510649262121      0.49431292358644
  C   4.63895593556138      1.34604817240863      0.09264821478380
  C   5.56541979331457      0.30392697080830      0.00072353602002
  N   6.89964636438986      0.55257940836376      0.39016992110410
  C   7.99376612680219      0.38163425499109     -0.41992438484610
  N   8.07884791448858     -0.20015140404721     -1.54671068754824
  C   5.14408810771390     -1.03484430390436     -0.26816579982281
  N   5.80152944860041     -2.12962370996775     -0.25622147837068
  O   3.79871300322238     -1.20679003627836     -0.63929398194314
  H   3.08632476100878      5.14508456755784      1.31307089154423
  H   5.43974323297696      5.01124588225670     -0.43428376790782
  H   6.99517521051351      1.26467164588962      1.10002066882892
  H   8.90189877315200      0.78769795480730      0.02860213863173
  H   7.16592025814072     -0.53811466760868     -1.85288330487959
  H   6.76672011484831     -1.94174048668972     -0.00200384266421
