24
Coordinates from ORCA-job 19365optt
  Br  0.83541833502576     -0.19619492746926      0.33669982447590
  C   2.71597918845207     -0.00847880919225      0.16372882820987
  C   3.48981883732091     -1.14192566032189      0.21557077565190
  S   3.01952209516497     -2.81310926449703      0.43602415070076
  C   4.72470581636186     -3.21756031037122      0.20701396345078
  N   5.52439042092112     -2.23216777854305      0.03270242691602
  N   4.88193626518720     -1.06773710667739      0.04906654811265
  C   5.57501063899660      0.18273356278994     -0.00466706620291
  C   4.73650702281496      1.31399890112323     -0.01482908561964
  C   3.31772826105663      1.24144626298508      0.02604279681255
  N   2.54913185933008      2.42054495571491     -0.00238031777661
  C   2.66299489534256      3.42902067706259     -0.92385590324180
  N   3.46071383324120      3.54654321481964     -1.90707555881204
  N   6.87229817237153      0.10075654358342     -0.02680161551020
  C   7.52121049760438      1.37326541873289     -0.09030875682833
  C   8.98549959285907      1.22327789466172     -0.11924063965951
  N   10.13031781721792      1.15903036514641     -0.14253107165160
  H   5.07039338336308     -4.23803495419495      0.21864739118117
  H   5.18981650710313      2.29311700845967     -0.01668913744601
  H   1.71915608866088      2.43559868710696      0.56850638178348
  H   1.94731211985904      4.23063795890371     -0.73318463804871
  H   4.06851054516938      2.72977111710964     -1.97755177043006
  H   7.29008356129174      2.02226134318861      0.77173306731478
  H   7.24454424528387      1.95920489987861     -0.98362059338243
