21
Coordinates from ORCA-job 19369optt
  Br  0.50642307268344      0.75704001982454      0.04523779057678
  C   2.91815633613910      0.14494191596869      0.06047146948049
  C   3.64675814055695      1.24714137502403     -0.04855630041831
  S   3.01984631255774      2.90037437458171     -0.22272325962349
  C   4.66419814479514      3.45477978748372     -0.33322395466538
  N   5.59318188240352      2.58238716159277     -0.25439397558506
  N   5.04711118046273      1.34131382193312     -0.08308739551444
  C   5.84441590320809      0.23346614731683     -0.11121157606844
  C   5.37560682953633     -1.01599627213881      0.01672398929935
  N   6.24274754748724     -2.13012273858731     -0.15855597243499
  C   6.20603922546849     -3.08870267275751      0.94769192758795
  C   7.29911418225625     -4.05885353250967      0.80472025800131
  N   8.14404500763537     -4.82487827930570      0.69085703633599
  S   3.66089185348971     -1.34891747228300      0.33052813041132
  O   3.27824235713927     -2.35294682700107     -0.64042716919044
  O   3.54559616390045     -1.74612899870362      1.71971778213906
  H   4.90806115110607      4.49875064523803     -0.46431125819204
  H   6.89423905968360      0.42692538896623     -0.28334279617859
  H   5.98917746706871     -2.61235224035314     -1.01647924903359
  H   5.26008879614378     -3.63395187061096      1.02743431541635
  H   6.34005938627782     -2.54626973367884      1.88393020765617
