19
Coordinates from ORCA-job 19378optt
  Br  1.02415415259048      0.39939714408762     -0.34552093499242
  C   2.86579469380023      0.10889678325176     -0.15588787330696
  C   3.34106618555972     -1.14765138965629     -0.09147111058891
  S   2.53324197320463     -2.68748287505858     -0.15626364400191
  C   4.11059649511198     -3.43840105394651      0.01064742774842
  N   5.09943433025354     -2.62410867567818      0.10603033937637
  N   4.68769748178905     -1.35981451308827      0.05273371518740
  N   5.63178301062410     -0.33374566695052      0.15410705682153
  N   5.13336926936991      0.89149657969405      0.08569942983498
  C   3.84646011137675      1.19469951948057     -0.06391380829881
  N   3.35504374826445      2.43131354807278     -0.14337524435895
  C   4.11174767878660      3.53036972672794     -0.07965142622868
  N   5.38609732119142      3.69669864175939      0.09096513568594
  O   5.71639930616053      5.07385232845664      0.09103286772922
  C   4.69212370617653      5.93712679030498     -0.07917288354224
  N   4.81460155535672      7.19754774497175     -0.10272813158343
  S   3.19995136655110      5.05452073248245     -0.25833405954802
  H   4.23930902297273     -4.50744226827803      0.03262369850781
  H   5.79612859085948      7.43972690336643      0.02447944555866
