21
Coordinates from ORCA-job 19379optt
  Br  1.18411554514068     -0.37500754466106      0.12283217197831
  C   3.02912014313630     -0.11651042663852     -0.16808215252568
  C   3.67045542984370      1.06429936480373      0.00912708921484
  S   2.66524214174853      2.50775755372373      0.27035937060258
  C   3.73783861267599      3.86951191921265     -0.08932118841537
  N   3.28595583653865      5.05425207243792     -0.19266181696835
  N   5.08334399139296      3.61604035238213     -0.19447368674542
  C   6.06103168762953      4.59448096341826     -0.28645478562763
  N   7.25451975631845      4.12306181340293     -0.21578778329875
  C   7.14617321843638      2.72062263703460     -0.05279619281047
  N   8.14050310961253      1.89014919305220      0.09594542660077
  C   5.75273027978518      2.38541535498072     -0.06210951359154
  C   5.07782056691980      1.17609846886639      0.01651999611285
  S   6.02657344590024     -0.28840746789623      0.29852191408964
  C   4.93128315683556     -1.56838288312851     -0.22640884071073
  N   5.29709974936036     -2.76836624450305     -0.36547298050958
  O   3.63618325994567     -1.29468710443146     -0.52120690950610
  H   2.27471655317432      5.06857162466124     -0.10423410825305
  H   5.77146369423080      5.62743458297097     -0.39150950929294
  H   9.00638506377083      2.42259399723589      0.04582922897312
  H   6.29344475760344     -2.85392822692455     -0.18461572931650
