23
Coordinates from ORCA-job 19371optt
  Br  1.13069896747812      0.22281386648021     -0.95711731369799
  C   2.91182474387367      0.03919041864171     -0.38448986976319
  C   3.40526644361628     -1.20130885743756     -0.15542725055156
  S   2.66255070569030     -2.75765721661658     -0.29548673676642
  C   4.19412336829903     -3.47845921595900      0.22419237026375
  N   5.19039728556557     -2.61287814903519      0.48866856496096
  N   4.71186934856733     -1.34181252647434      0.26323242858346
  C   5.46034006940274     -0.23259359065989      0.43570036742060
  N   5.05138024103507      0.97477471147366      0.23974649371427
  C   3.73810581811793      1.22143050372104     -0.18573874205101
  N   3.28817267531755      2.40669284797250     -0.38765558054517
  C   4.27109084044737     -4.88399963216647      0.32054702185926
  O   3.32839920922076     -5.65202643492257      0.04579468477362
  N   5.48792917563756     -5.40194526470478      0.76874911801113
  C   5.70866667277326     -6.79643006844940      0.57893732116158
  C   7.12767733330728     -7.20576279705183      0.79638872863046
  O   8.04371807256161     -6.46206970243305      1.02207568506720
  H   6.47408797469937     -0.43218933346532      0.76459035964344
  H   4.04017519686939      3.06180258075269     -0.18365245331846
  H   6.29458519870409     -4.79411906513879      0.74463412268927
  H   5.43033306033128     -7.14109359847919     -0.43091582484234
  H   5.08377848130879     -7.40180790991009      1.24842462828920
  H   7.29882911717549     -8.29855156613768      0.71980187646794
