23
Coordinates from ORCA-job 19384optt
  Br  2.47971353223843      0.40768594839046      2.78694128622386
  C   1.97441238214489      1.83310747190277      0.75371452884041
  C   3.25022293257451      2.25198613223936      0.24331298595332
  S   4.21959797469978      1.25469491728433     -0.77838537242489
  C   2.97681680008507     -0.08284046840525     -1.08067749051928
  N   3.40750157801574     -1.17494802773763     -1.56238017225688
  N   1.63894120797014      0.15469608902348     -0.91769424664905
  C   1.18984052662210      1.03330737966679     -0.08149103965694
  O   -0.18699105660891      1.19724169640508     -0.04460423033916
  C   -0.71034015531651      2.34100696534062     -0.54757723342601
  O   -1.87043629857180      2.58134016732093     -0.37038684236169
  C   0.21797620688004      3.26873481967024     -1.29862874667630
  C   0.62758621686967      4.47588320327640     -0.41633695194928
  N   0.93389969082364      4.22591882245643      0.97702491206653
  C   1.94644948863490      3.27297520996303      1.31585160209394
  N   3.26644031881112      3.49202176670463      0.62350885682026
  H   4.42248063858860     -1.17713133877813     -1.62125938778355
  H   -0.34712409752909      3.64441328270576     -2.15149088157259
  H   1.09297820743301      2.74288313112964     -1.67459814755330
  H   -0.18939674435015      5.19721161458715     -0.42897923335178
  H   1.49587609881255      4.94674372724989     -0.87826032588663
  H   0.09981076998511      4.06974341250281      1.52850994876462
  H   2.06574378118706      3.25632407710112      2.39788618164439
