19
Coordinates from ORCA-job 19387optt
  Br  0.99422491833087      0.41651325796918      0.04543586652554
  C   2.83512382278792      0.07325086426644      0.04312974696793
  C   3.38959996364989     -1.14092635807811      0.04136438250190
  S   2.64865327196218     -2.70048683620013      0.04147848593915
  C   4.34825394483038     -3.47931637037064      0.03969537182769
  N   4.49457242696134     -4.74776691608571      0.03988040880706
  N   5.30788379797106     -2.54126063751121      0.03829613717539
  C   4.83996215794654     -1.29841383663681      0.03931374411480
  C   5.61335266411877     -0.11057925130176      0.03920682311413
  C   4.92937436046285      1.13880502396398      0.04223496749255
  O   3.56733793091784      1.22505499758880      0.04350058470152
  C   5.63865344793186      2.31788857639484      0.04440812252201
  Br  4.71127207312890      3.95647843863800      0.05147471323781
  C   7.05002646960443      2.24145730148241      0.04179319620702
  Br  8.15068766643351      3.77699167749414      0.04258185350619
  C   7.63705563050132      0.99061018529629      0.03806072403927
  N   6.96698783652406     -0.15088332964559      0.03711501607764
  H   3.59783142471193     -5.22193372072586      0.04128482326593
  H   8.72014619122428      0.92051693346173      0.03574503197649
