22
Coordinates from ORCA-job 19381optt
  Br  1.93904729897522      0.17733271043512     -2.90843507341697
  C   2.85646628568912      0.36738125583937     -1.22074025072030
  C   3.41486179285809      1.62334742739805     -0.84260500051428
  S   4.78312372658494      1.45106759794379      0.26896889844355
  C   4.28885100578183     -0.11343537978867      1.07864335311757
  N   5.14943251206830     -0.83691664385276      1.66475157223365
  N   2.93961606868173     -0.36478661162143      1.09035663275570
  C   2.27054654064322     -0.17531465518773     -0.00040744828859
  C   0.79825578542997      0.04080806308547      0.01981050230823
  C   0.40833203572150      1.10657216724101      0.71656461826203
  O   -0.73112285944510      1.83770392862693      0.40376222192070
  C   -0.46942947355118      3.20275058952726      0.29696899388308
  N   0.56294964188389      3.73191184287118     -0.27665614661210
  C   1.35885734445600      2.90320189846976     -1.00184287234010
  C   2.73263680176114      2.85481957969785     -0.81394426206218
  C   -1.43224240923893      4.00732687156817      0.97693906690666
  N   -2.22721631570385      4.64300474551087      1.51480463796636
  H   6.08367921078591     -0.45324354901088      1.54736746526782
  H   0.19245312687296     -0.30760182058882     -0.80437969106818
  H   1.03838390225625      1.55783222622258      1.47620483045511
  H   0.87344608192292      2.08926063817823     -1.51970603111256
  H   3.20907189556605      3.68597711743460     -0.30642601738519
