24
Coordinates from ORCA-job 19407optt
  Br  1.45314464211312     -1.73429958660674      0.54453541662996
  C   3.08747287527217     -0.78307280623914      0.27040196167649
  C   3.22247501915882      0.53833399363143      0.65756285315960
  S   1.99974341112935      1.33679501223037      1.63130729463581
  C   1.31829277546551      2.35424246244480      0.26191768994386
  N   0.16879565114467      2.10957015376222     -0.22613428706574
  N   2.08257430755706      3.40452569089005     -0.11442024975912
  C   3.37452276818100      3.51055632898126     -0.02587076895656
  C   4.48482739740296      2.63125890947242      0.16784283549824
  C   5.81182850319490      3.32626556419824     -0.04609361202919
  C   6.55471453409330      2.96520304917937     -1.32247213668739
  O   6.02463423021458      2.69619086683415     -2.36197402947414
  C   4.43136059259250      1.23292782029762      0.31291002631986
  C   5.57586664320283      0.34690608785859      0.04796740462227
  N   6.86039648174189      0.57265388591930      0.17841068481177
  C   5.22403367714612     -0.97182925581496     -0.41123353432557
  N   4.03804938516112     -1.51084616428300     -0.32289548743249
  H   -0.23069093577268      1.29536214168858      0.23171194406765
  H   3.70033076368838      4.53228120901301     -0.22702674756152
  H   6.49692859594338      3.23521877838583      0.79997365691641
  H   5.63443394082498      4.40312358464990     -0.14433400699378
  H   7.65996842874592      3.03644534050687     -1.26054974920497
  H   7.03324672964054      1.45831990268595      0.63788995455042
  H   6.03204958215750     -1.57413296968613     -0.81342711334189
