23
Coordinates from ORCA-job 19408optt
  Br  1.66360692877718     -2.07577509310180      0.08267513792726
  C   2.68638604042652     -0.49056135140937     -0.15586441119676
  C   2.29388439992679      0.76328532896666      0.43914362657619
  S   1.37803231730039      0.70282980271821      1.94555932184217
  C   -0.23372189585077      1.28919937602402      1.35053764413359
  N   -1.23406579838549      0.56193690298384      1.09692531639200
  N   -0.20849370139546      2.65747308290791      1.13744053470533
  C   -0.40262772758124      3.10762870571792     -0.18666728274231
  C   0.54172293080957      3.81283447011995     -0.79721199590527
  C   1.84484107439393      4.23691427656888     -0.17012350265138
  O   2.04058827021377      5.46693516900001     -0.13891327905453
  C   2.81784550788968      3.30295306790320      0.26761485471719
  C   2.96963835591565      1.89851834330572     -0.02724267143906
  N   4.03562863114257      1.65032658135700     -0.86391439297222
  N   4.56185144427228      0.46045807762136     -1.27255019042936
  C   3.81066372414473     -0.58066434292777     -0.94397066554583
  H   -0.99742539139768     -0.41592673327582      1.24376783443408
  H   0.64420680595532      3.05882966489816      1.51425736304338
  H   -1.35050990071095      2.84241972181039     -0.63529269678208
  H   0.34280826924208      4.24326127817174     -1.77096041155659
  H   3.77099182257028      3.79837488727356      0.43900122282333
  H   4.48612216347347      2.45954492669427     -1.25892617572424
  H   4.14002572886733     -1.53479614332809     -1.33628518059488
