22
Coordinates from ORCA-job 19416optt
  Br  0.26841169114540     -0.11847820607379      1.26844970255168
  C   1.76820534826496     -0.35359773608866      0.13856973074872
  C   2.83513136128140     -1.24750565971927      0.50180864163425
  S   2.56067664774571     -2.62241026695117      1.55120822249224
  C   1.21689538976333     -3.51058335739502      0.74717559173858
  N   0.43332292375996     -4.19439979473042      1.46597693537122
  N   1.07418604018907     -3.35805503813758     -0.65881693351292
  C   0.17637461557168     -2.35858778301128     -1.07323899867210
  N   0.38325658898383     -1.69744418212520     -2.12256606091616
  C   -0.21158323602409     -0.37482068814725     -2.19778376891812
  N   -1.39298955723410     -0.14978930637798     -2.64219571854001
  N   0.70074955555619      0.58201218987138     -1.87456717418698
  C   1.73883599250291      0.20562676191239     -1.13401599825819
  N   3.00942841617794      0.31920488746359     -1.72420023545866
  C   4.05420896078757     -0.46415712858262     -1.26580824824038
  N   3.98160797550537     -1.24962263739243     -0.25152744267914
  H   -0.22596889062741     -4.68862366775634      0.86361057268331
  H   1.96342382878566     -3.21177243751904     -1.12710333744931
  H   -0.62660333882785     -2.16904625459580     -0.35713560682524
  H   -1.80322922232323     -1.03674524180605     -2.92143355481295
  H   2.97366947330009      0.55790395919951     -2.70499941548087
  H   4.96598943571558     -0.42210841203693     -1.85040690326898
