23
Coordinates from ORCA-job 19417optt
  Br  1.35513948037488     -1.84736963850420     -0.95737409312412
  C   2.45585727976640     -0.55115172675378     -0.04512156716572
  C   2.59201623870951      0.72844197462404     -0.50948467772138
  S   2.13325934360308      1.08536947314239     -2.17904060779338
  C   1.23973119419102      2.63671502703985     -2.23486341678753
  N   1.21635086579326      3.31500889567267     -3.30739033929308
  N   0.57455991924577      3.13895046317963     -1.12629897997759
  C   0.48570309819385      2.49978259079797      0.07991341195245
  N   0.50429816557468      3.14538294939871      1.17029811602295
  C   0.63709407355159      2.35660284246355      2.32634450188802
  N   0.01271014034442      2.55363113108559      3.40669652285887
  O   1.49920853466636      1.31633663328934      2.23864659316356
  C   2.83679725850154      1.50042466133691      1.80604664036592
  C   3.66709527676882      0.39255147560036      2.11173718518253
  S   3.06128840243371     -1.12075447381434      1.47249043917340
  C   3.08724193004100      1.84573050163817      0.36527001039120
  N   3.66967409749601      2.90873028000528     -0.03982687042809
  H   1.82476743861099      2.90576881814085     -4.01076028364794
  H   0.57286321980266      4.15098524596895     -1.08512230843670
  H   0.42335321881822      1.41624608239716      0.02102372166116
  H   -0.62039987253212      3.33676034584698      3.26360500956103
  H   4.72770022468054      0.53050810598071      1.93633778324663
  H   3.86169047136377      2.84334834146317     -1.04112679109219
