22
Coordinates from ORCA-job 19415optt
  Br  4.07136317401594      5.28831703475608     -4.16814480643288
  C   5.80707950945206      4.77583104586336     -3.69180240230715
  C   6.15432378258730      3.67318055882898     -2.97901666491162
  S   4.98094142725374      2.38833488661141     -2.67073372536895
  C   4.85938964327798      1.59939827364286     -4.34340923011828
  N   4.12969889435499      0.57197276134597     -4.47940660340626
  N   5.50815269587263      2.27872092086783     -5.32109208195110
  C   6.78895027036513      2.22500889022789     -5.43306960015599
  N   7.51032196881393      3.17483529801770     -6.06140692284941
  C   8.81979503451309      3.02240606339869     -5.95473708733023
  N   9.73160614622256      3.94904282668019     -6.10956489877433
  C   9.55875583084592      5.26390643796913     -5.88375192098365
  N   8.84881596421824      5.89492318521621     -4.99561645825072
  C   8.03974626081500      5.20732151449444     -4.14499075872653
  O   6.72674436518697      5.61716754066077     -4.21870245832619
  C   8.36293662618720      4.22941296946118     -3.24363064540711
  N   7.45285600901200      3.43583538153185     -2.64023300584980
  H   3.68643188465004      0.31693186747899     -3.59938555888530
  H   7.33909184607783      1.42405157959677     -4.91183306056517
  H   9.22047742710312      2.02363080634637     -5.72896371724302
  H   10.20048137858685      5.90649345344067     -6.48591229347899
  H   9.41003986058695      3.99527670356242     -3.09659609867700
