23
Coordinates from ORCA-job 19414optt
  Br  1.43323629142336      0.23013886130370      0.17513839682769
  C   3.30737495110502      0.02787762047541      0.11035404149057
  C   3.86166253942256     -1.14368489062368     -0.27209539224541
  S   2.96557946917206     -2.51979216037346     -0.87451883779081
  C   4.05434342858193     -3.85770499840690     -0.29283093385252
  N   3.54248945445761     -5.00552082421037     -0.07235433283612
  N   5.37781931729573     -3.61770246054711     -0.19873155000276
  C   5.90881657928433     -2.42309061813640     -0.31736042214094
  N   7.26108888405163     -2.34166146604849     -0.43420974416059
  C   8.06669638933045     -3.52282778163656     -0.23328106827801
  C   9.48129318503250     -3.21615859276198     -0.44133095635564
  C   10.63953682207831     -2.96045856211480     -0.60524305135726
  N   5.26384092653286     -1.22921906215938     -0.31311744616674
  N   6.06471214675907     -0.08630474069714     -0.37116018565119
  C   5.46877739647091      1.03393438632076     -0.01192818557168
  C   4.11108051137964      1.22729815843152      0.36473148503396
  O   3.63896132343551      2.31172965223693      0.77679858593261
  H   2.53337551495855     -4.97559164513311     -0.18469499354207
  H   7.65744697186694     -1.41854854535953     -0.33899532261329
  H   7.74969139682950     -4.30142429156914     -0.92877781584588
  H   7.92544437245848     -3.93786552679761      0.77062347595064
  H   11.66602230404255     -2.72941455070881     -0.75572214676749
  H   6.10470982403028      1.91199203851620     -0.03529360005707
