23
Coordinates from ORCA-job 19423optt
  Br  3.73387048484687     -1.12409421290911     -3.08719448409227
  C   3.46146314587342     -0.19270303289551     -1.45118830944954
  C   3.45387611554755      1.21123050412325     -1.43044650571968
  S   2.40975153748599      2.15967880545516     -2.52188584280178
  C   0.85419857888909      1.95652617085097     -1.58874996383627
  N   0.42363312009274      0.90700409079023     -1.04322497632230
  N   0.13302408286337      3.15289193811343     -1.48305974066918
  C   0.18939269312656      3.91791024431010     -0.49229916475779
  S   1.16817268120787      3.89669374802871      1.01706073583436
  C   1.04386987633904      2.30782725884142      1.91147124982546
  N   0.04070076973852      2.00786389732109      2.61360379856755
  N   2.22925019608161      1.57756484926870      2.03042934919124
  C   2.88108497566215      1.08136690302468      0.88228022163308
  O   2.77497556561982     -0.27355053699374      0.82387693948974
  C   3.32791257224161     -0.97624889055504     -0.27858415766422
  N   3.55083084062725     -2.22814367600170     -0.12280275277067
  C   3.40148743861440      1.81001799731949     -0.10117916274289
  H   1.03802214665040      0.11651692079374     -1.24334938753704
  H   -0.35842325160600      4.85790028603185     -0.52958951967610
  H   -0.69021503676698      2.70682230136828      2.53418462185842
  H   2.08978421444735      0.84800991440711      2.72173773346706
  H   3.26792748734434     -2.50382012860925      0.81394370010685
  H   3.49040976507301      2.87773464791609      0.01096561806598
