23
Coordinates from ORCA-job 19436optt
  Br  3.00201575165082     -1.96976965903749     -1.91497187081661
  C   3.88546919375936     -0.77676846255301     -0.70985643629555
  C   3.74759685552724     -0.90337139934773      0.61890154292351
  S   4.65531597539264      0.32483200768893      1.55369910979247
  C   6.25776489435279     -0.16945744258624      0.86825575088879
  N   6.45517899047739     -0.08554407052190     -0.39263578650075
  S   5.12398245906558      0.23325221085147     -1.40621639615360
  C   7.24911562601911     -0.93255133337063      1.71716072840004
  N   8.52853833107526     -0.89783360714380      1.53417977209346
  C   6.52352275096407     -1.92825058982565      2.44525953886993
  C   6.81907948135734     -3.27622574509548      2.63591075926039
  C   5.77109644705515     -4.22462789461038      2.73156429190622
  N   4.52062898809638     -4.05167015203476      2.33084420969371
  C   4.30573154694055     -3.06649100180265      1.42923993923801
  C   3.34214170666317     -2.09463783545065      1.40351463017814
  C   2.35845953711785     -1.95698550705196      2.41760063520577
  C   1.50531802177147     -1.82132655517205      3.25657477756898
  H   8.75135548928029     -0.20969191859016      0.81643336208926
  H   5.51933284298064     -1.64742013802722      2.71326807610556
  H   7.84461123590008     -3.62762452255163      2.66086524703506
  H   5.99345021427924     -5.19448267158914      3.17525178509783
  H   5.05645499632531     -2.99031051333267      0.63662202968703
  H   0.75683866394819     -1.71604319884517      4.00253430373233
