21
Coordinates from ORCA-job 19432optt
  Br  1.12065906976015      0.32188697772512      0.64960686595992
  C   2.98731456658770      0.19590856654112      0.40046627238222
  C   3.57004093715819     -1.02864378224500      0.41896420474247
  S   2.61967438524610     -2.49380334988062      0.68089112989736
  C   3.58894233606798     -3.70193952686828     -0.18085353351050
  N   3.10824551754770     -4.78886026197655     -0.60303803048202
  O   4.91732797676539     -3.52225684455304     -0.33049377860555
  C   5.57473079598536     -2.38449578397313      0.06669607530935
  C   5.00928599945234     -1.22453971252657      0.39118424636909
  S   6.02094887728929      0.09815363407090      0.98867686923431
  C   5.12197795202925      1.36006265595648      0.17251384853627
  N   5.60691129855424      2.58428007782856      0.00964271284848
  C   4.55940223347125      3.44162145045994     -0.10238900893406
  N   4.52987682886451      4.72133600383857     -0.33414787009606
  C   3.28009390670102      2.68663510368418      0.03444258136032
  N   2.08802888713245      3.09992844605028     -0.10420321506496
  N   3.70036971851255      1.35602894706123      0.27604161643022
  H   2.10139487578709     -4.80731726057229     -0.47223042852329
  H   6.64239499006315     -2.54275715601297      0.07262878232437
  H   5.48684331671248      5.05651481120357     -0.42412812837399
  H   2.17353553031176      4.09925700418850     -0.30227121180394
