22
Coordinates from ORCA-job 19437optt
  Br  3.26168431147769     -4.07353343427802     -2.41836344532444
  C   4.64940822458805     -2.92766157997051     -1.74037360417029
  C   5.86766065112831     -3.39692403433753     -1.40303590871139
  S   6.96984972856877     -2.25687248274769     -0.62339572646238
  C   6.87706851186035     -1.01031933190628     -1.93981336538624
  N   5.70663393949297     -0.52567405776968     -2.31807746887590
  S   4.30357432139609     -1.23797944986210     -1.77141446296820
  C   8.07420616628617     -0.77329203358729     -2.68072721548861
  N   9.31281030863446     -0.88350941464617     -2.29699216497669
  C   7.86742801985935     -0.58700884069947     -4.15881782871345
  N   8.23156730071548      0.41057298863785     -4.82481017319645
  O   7.22855395160283     -1.65192685618730     -4.79520877721586
  C   7.03804590489407     -2.83843094704386     -4.14727016520120
  C   8.01582286182004     -3.54070095132558     -3.58220121867456
  C   7.83305589432831     -4.79229428211870     -2.82728823830877
  N   8.63623518388509     -5.77532669232187     -2.85282357579558
  S   6.41137829690111     -5.03823948437511     -1.76832747910751
  H   9.33946023315513     -1.06731886871013     -1.29325290439031
  H   8.01597540941766      0.26825510882805     -5.81177266579388
  H   6.00252515071517     -3.16026463248605     -4.15754059386556
  H   9.03129354229690     -3.16018950529691     -3.61445924037378
  H   9.38176208697587     -5.59236121779561     -3.52503377699889
