22
Coordinates from ORCA-job 19439optt
  Br  1.65695928001698     -0.23413176460462      1.76709908056499
  C   1.52721011101773      1.44153453170735      0.76471542791155
  C   2.70639776954524      2.24041585823169      0.65823232489457
  S   4.18981970328380      1.45387915887294      0.14197328858163
  C   3.61435767853384      0.22344265799145     -1.00832325047941
  N   4.39726201557618     -0.65015489880359     -1.48680569062143
  S   1.96411337071181      0.17309756331369     -1.65742050542712
  C   0.95198141700780      1.21305551496585     -0.57098839561908
  C   -0.13517336337804      1.68528536873222     -1.18783770072704
  S   -1.43627218352626      2.68052334284395     -0.54255921394355
  O   -1.87048562957728      2.21504236400374      0.74582204453784
  O   -2.40528367668439      2.79836834115714     -1.59511028837988
  N   -0.64586779862461      4.15637386845554     -0.44059854937117
  C   -0.44248968256916      4.57413944355756      0.73810433835917
  S   0.84840800809718      5.73797444316604      1.15756095913406
  C   1.73192949814839      4.25482784199657      1.53783173905024
  C   2.60065531252686      3.63559501786106      0.66367930549685
  H   5.34011100028831     -0.53602957900115     -1.11290327195977
  H   -0.29265581264153      1.51474648420929     -2.24513870797822
  H   -0.90061270270964      4.09643154222252      1.60545426385002
  H   1.31569418781009      3.66989240855740      2.34890044162423
  H   3.20794149714667      4.23069049056330     -0.01468763949845
