21
Coordinates from ORCA-job 19434optt
  Br  4.79664339729465     -3.31748946830974     -0.32228161209188
  C   4.21564271881182     -1.81378523085785      0.67066249953496
  C   4.02313199036981     -1.93590412962144      2.07589520923413
  S   4.92794084590302     -3.11849409028061      2.97895077349300
  C   6.68364806301095     -2.71680524371686      2.57980860539500
  N   7.53898847220859     -3.64171016908549      2.56513426894642
  O   7.02356244381036     -1.43286513938333      2.53051588370479
  C   6.68978685485768     -0.52845367856010      1.44422837948495
  O   6.25677029764367      0.53948225780271      1.82578351228285
  N   7.00236164973711     -0.99094342234964      0.25159197529871
  C   6.40102976897589     -0.43950232206609     -0.83688821222988
  C   5.06931174070999     -0.22913651852670     -1.03045359473629
  C   4.18384016736738     -0.59200760262570      0.06224479616940
  O   3.51651576959994      0.44254796401943      0.67672303473891
  C   3.13568576291606      0.29178966034357      1.97162858412156
  C   3.41893730518186     -0.80652300418207      2.69495948361333
  H   7.07812496143834     -4.54320042351280      2.66445256680939
  H   7.06252746261095     -0.20841802080622     -1.67287623029748
  H   4.70720988019269      0.25194567014982     -1.92899643186313
  H   2.66367046621030      1.18181935254015      2.35800550491854
  H   3.21566998114876     -0.80734644097099      3.75691100347270
