23
Coordinates from ORCA-job 19447optt
  Br  5.17958261498524     -1.27197386276179      2.65046627446729
  C   5.13763098283881     -0.66834565130555      0.87059669350064
  C   5.84710417469801      0.40142654763977      0.44685228178748
  S   5.36903571062474      0.97821086933127     -1.23834449776099
  C   5.81502933420926     -0.69378194077940     -1.74209947673753
  O   4.90699619172802     -1.62956856684379     -1.30709363853026
  C   4.35270853283444     -1.50826977195779     -0.04998583870492
  N   3.32687467009572     -2.16923096699588      0.25860203417854
  N   6.95705422431623     -0.98637033043904     -2.15120675678634
  C   7.59237701890680     -2.08574767560035     -1.45766919089594
  C   7.52724787074063     -3.44740709707102     -1.82299918724515
  O   6.93067408884240     -3.91783559803353     -2.79461580161109
  C   8.14270462092757     -1.47307430995227     -0.30896544270913
  C   8.17505054760891     -1.79647057384855      1.03836908614903
  N   8.30918512377918     -0.86550894822762      1.98971323255018
  C   7.96028834537320      0.41990261937494      1.82840979385082
  C   6.93570388287474      1.04085692197524      1.12928608628456
  H   3.01443868576194     -2.70713349851441     -0.54877062109634
  H   8.10646190556570     -4.10703913345985     -1.14831896484042
  H   8.28699478045068     -0.41134209726853     -0.47110581328135
  H   8.10082900803604     -2.82740407565995      1.37903365123811
  H   8.59154596859360      1.11297149531560      2.38743859490640
  H   6.99848171620801      2.12013564508254      1.05640750128639
