24
Coordinates from ORCA-job 19446optt
  Br  3.63428173692904      2.53147018684358      1.39931662033385
  C   5.10680102056706      1.99103409145527      0.28528878425499
  C   5.82161595305311      2.90781875690320     -0.49446970194072
  S   6.55986325406466      2.18895460669137     -1.94124301979387
  C   7.25715380618362      0.84735200131357     -1.03567703908604
  O   6.36643977019320      0.03719668703534     -0.41589634767604
  C   5.20658657635416      0.56695672766740      0.17842199593252
  N   4.36829941699379     -0.28722333553318      0.63813910136804
  C   8.56801846726954      0.60545963103722     -0.90550244125907
  S   9.78709258949374      1.71894016394770     -1.50397538197209
  C   9.14345851687744      3.24695732959564     -0.69612983970370
  N   8.73360030641595      3.29162421523825      0.49206171170101
  C   9.07048171550675      4.39796720707102     -1.59195604911620
  C   7.97443214571896      5.15572130630034     -1.77054934468914
  N   6.68070262081798      5.07988595573436     -1.31638837569123
  C   6.04506601999305      4.31574218650656     -0.26324014362495
  N   5.60470737773157      5.06244278694347      0.68443729996574
  H   4.72978507169723     -1.22279560434617      0.46891003003011
  H   8.88899967690701     -0.24974621381926     -0.32404622713504
  H   8.75143087709453      2.37914857581524      0.94795101041808
  H   9.91865250310159      4.59751623059332     -2.23402970076558
  H   8.08016693854044      5.98044882345797     -2.46943211209724
  H   6.22946971633281      5.98303325752832     -1.32729140161318
  H   5.07089392216234      4.52409442601932      1.35630057215977
