20
Coordinates from ORCA-job 19449optt
  Br  1.07751431654642      0.28521552698857      0.29989907592578
  C   2.94755282587004      0.17011282481750      0.11670153975669
  C   3.58970973454734     -1.08758755694717      0.15481560125228
  S   2.92379508587739     -2.68585559102737      0.25710721644994
  C   4.51436960520723     -3.38318916630622      0.21726512294304
  O   5.47249129424509     -2.45702478344725      0.11426323626994
  C   4.97547293963070     -1.16615276269178      0.07205488717670
  C   5.76473787704762     -0.06036799872393     -0.05415781256934
  N   5.09295668100843      1.16835942382836     -0.09430235848302
  C   3.70245306550810      1.36522958652575     -0.00751592254394
  O   3.27577518697015      2.52152885922102     -0.04713031814113
  N   4.70924522193801     -4.65315242378109      0.28468762210665
  C   5.95843442668101     -5.20034311567171      0.27398471342081
  N   7.13560118847909     -4.62356769483337      0.23261109234613
  O   8.05001459604268     -5.63842783274013      0.25415993338171
  N   7.44963514272234     -6.85146310588848      0.30701874318134
  C   6.18402389442490     -6.61703788249671      0.32098681860748
  H   6.83944963202897     -0.07464368182951     -0.11004511253556
  H   5.60924571654065      2.02454971358121     -0.19703892198977
  H   5.45352156868380     -7.40718233857765      0.36463484344426
