23
Coordinates from ORCA-job 19440optt
  Br  0.97583689904822     -1.63980339691633      0.06629718745499
  C   2.79588567526488     -1.09128123374270     -0.02297177989479
  C   3.21115349430045      0.20567953779537      0.22060804821960
  S   2.09091432322337      1.32131050757256      0.98425891395469
  C   2.26735415629095      2.79121491797618      0.02336627623304
  N   1.33356781568174      3.64317322353805     -0.09889924192035
  S   3.80133696197168      3.12122356630537     -0.73626443685463
  C   4.95770672408627      1.89588794669015     -0.14685707999265
  C   4.59738111573092      0.55620605793807      0.03881974582612
  C   5.49936025477792     -0.59694124988060      0.02131004753830
  C   6.87375746198521     -0.56588819018190      0.29714989067203
  C   7.68752774931001      0.52960306208819      0.59946499269004
  C   7.43915238713127      1.86038439936990      0.45655945721774
  C   6.29551333975996      2.49684534266700     -0.18594702765819
  N   6.41975859622848      3.65592505412730     -0.74799392819519
  N   5.02461442589538     -1.84598295052293     -0.22397966479270
  C   3.73676264508336     -2.07913620460086     -0.30709813288655
  H   0.47880150076226      3.31135100588994      0.34487726083795
  H   7.32808970249378     -1.54771196641331      0.32395292061258
  H   8.68170339951699      0.27603616817177      0.95793365027352
  H   8.23420435286287      2.55184201330521      0.71568840337819
  H   7.38108005115939      3.97883149922460     -0.66365916084033
  H   3.41553696743453     -3.08476911040107     -0.55361634187339
