21
Coordinates from ORCA-job 19459optt
  Br  1.33555749183618     -2.77531570530142     -0.41737391835909
  C   3.12044913231804     -2.29091682252860      0.13149278058171
  C   3.55251416665913     -2.73629061328653      1.43251170339392
  S   4.53638998610387     -1.60884350022814      2.32032927308702
  C   5.80985047933761     -1.19618991723663      0.97075292698075
  O   6.86227070210786     -0.78192401521259      1.36815892338188
  C   5.36496938641676     -1.54389988808181     -0.35626771936311
  C   3.93179448306869     -1.61250330579272     -0.68281976837234
  N   6.21227125074791     -2.35802204941863     -1.00013574773932
  C   5.86998511800491     -3.10574155808699     -2.00982862522816
  S   6.54255770077587     -4.73091102637086     -1.97147813493753
  C   5.61571569923400     -5.34735019716175     -0.60964339752252
  N   4.72008152700539     -4.64046988712290     -0.05576667778302
  C   4.02621077125696     -4.96359887898641      1.09745278337346
  N   3.51002803368709     -4.05296055872685      1.84749910873736
  C   3.92991380959479     -6.34777822037729      1.50162293747779
  C   3.90748445714718     -7.51703137972473      1.76932660595616
  H   3.58612604149767     -1.28900499459463     -1.65860816535519
  H   4.89187828623790     -3.06965218305110     -2.48645367551466
  H   5.90500103108189     -6.35020247111175     -0.27232838078739
  H   3.87195044588022     -8.54739282759762      2.02855716799228
