22
Coordinates from ORCA-job 19468optt
  Br  1.50449238672827      0.45422515244530      0.71205276929946
  C   3.20547062531992      0.24029094206580     -0.20450069094903
  C   3.84684957930951     -0.98807192387082     -0.08576351568014
  S   3.12919746463090     -2.57731394176844     -0.05338088346595
  C   4.77545696028804     -3.39425835502016      0.00984855837220
  O   4.87007320874404     -4.61166380562681      0.04464205131815
  C   5.76461392618337     -2.37866073419539      0.01579365840572
  C   5.23689334435001     -1.09532983962981     -0.01996510402311
  N   5.98319545174115      0.07549713770882      0.01894423487221
  C   5.38907461245179      1.31678777588340      0.15914314842072
  C   6.07234616735578      2.42266345810881      0.47653347308642
  N   5.44401259800468      3.67019788437363      0.37928913387838
  C   4.26507282024150      3.87317852711570     -0.28361287183468
  N   3.73960975181491      4.99924835179808     -0.56977715727166
  C   3.49229521301763      2.60989703488074     -0.64424841078979
  O   2.43502302676760      2.67251104334247     -1.20978228142470
  N   4.02976800134271      1.40475069099091     -0.19104846827762
  H   6.81631982577775     -2.62219462471363      0.06700127359251
  H   6.94101995649453      0.00552661429854      0.31686669592692
  H   7.13020573138461      2.41205516626883      0.68470985402393
  H   5.93891552667838      4.48452494424956      0.70054206463543
  H   4.34109382137283      5.76513850129442     -0.26628753211536
