21
Coordinates from ORCA-job 19469optt
  Br  0.78370689665124      0.37011646927479     -0.11214552983322
  C   2.64941014422308      0.06023785762468      0.00737329736681
  C   3.47302319878489      1.17296011643556     -0.05664176641882
  S   3.08010302423782      2.85518357114619     -0.24148257684069
  C   4.86002616383826      3.33222436260576     -0.18255615712221
  O   5.18800454538186      4.49908823189513     -0.28032934798129
  C   5.63061046671482      2.15131925989270     -0.02036622817875
  C   4.87143610994891      0.99408032848448      0.04312687754495
  N   5.33658443781735     -0.27177904982729      0.18581552889236
  C   4.56329752626817     -1.44321077649739      0.22467858855443
  N   5.30618457634056     -2.52896367627526      0.32120237789041
  C   5.01404866601417     -3.79146668289378      0.36432369123810
  O   6.13095093508986     -4.62448941290978      0.46369451492368
  C   5.94152416444169     -5.93253277646657      0.53983247134399
  O   4.88365065741386     -6.50630309601124      0.53335066781577
  C   3.15566979457886     -1.22874712501988      0.14970631107189
  Br  1.98646391752218     -2.70648462039380      0.27836394560385
  H   6.70814216638771      2.19333945963852      0.03635967937295
  H   6.32912792667107     -0.43964114450238      0.24270355053680
  H   4.07301582637802     -4.30966905465802      0.33326574658495
  H   6.91401885529554     -6.43526224154238      0.61272435763406
