19
Coordinates from ORCA-job 19462optt
  Br  0.93060055185889     -0.12319955829390      0.02126569547497
  C   2.82417035339901     -0.12713428845666      0.01909794342690
  C   3.52296396854357     -1.26338064253111      0.01698593030399
  S   2.80091659866726     -2.84877112601453      0.01544097769111
  C   4.45942409573112     -3.64161807277197      0.01313611415063
  O   4.55284941312964     -4.84688010995449      0.01146482675448
  C   5.45984829419739     -2.62508126871209      0.01385785916442
  C   5.00539280849285     -1.32224157563765      0.01590953516582
  C   5.75662705209381     -0.12228617836118      0.01716615085945
  C   5.17909768594699      1.17643543674791      0.01831918957591
  S   3.45411904408030      1.48773882353041      0.02024689753376
  C   6.02465522425467      2.28692554536873      0.01824008626132
  Br  5.29842996446494      4.04983262499684      0.01893686519818
  N   7.32708204484566      2.30085554886607      0.01767808229233
  O   7.90994447400858      1.03274413863881      0.01771034113589
  C   7.21595652419542     -0.15846242209804      0.01731567632208
  N   7.92488680665787     -1.21451731352025      0.01745917507138
  H   6.49895905108663     -2.89941240609456      0.01300355302468
  H   8.90807604434533     -0.94854715570235      0.01776510059267
