20
Coordinates from ORCA-job 19461optt
  Br  0.48445900320103      1.12832777829895     -2.00833813559323
  C   1.68015044655484      1.25239460135545     -0.52992334112987
  C   2.86962554154877      1.98444078770425     -0.68786282690533
  S   4.31421430069078      1.38980685231155      0.14222962035573
  C   3.67255196098039      0.42087627973417      1.54188706800818
  O   4.51416006303566     -0.00215983480736      2.31378370045405
  C   2.26170113366687      0.27597191730789      1.65915211332689
  C   1.36866929622158      0.60937790503847      0.66386937853578
  O   0.02554679302732      0.35315812121479      0.93863419778494
  C   -0.81011624959527      1.44330701697094      0.93144272945024
  O   -1.99152322014462      1.27863140431374      0.96959944273016
  C   -0.08110718120595      2.74357085080434      0.85210171552537
  C   -0.25778050883587      3.56688862912374     -0.17456371511247
  S   0.99652405067382      4.76217419653107     -0.58636645826839
  C   2.20924754575239      4.01415520341609     -1.67333940216298
  N   3.05022838508737      3.03345451941515     -1.48645012582887
  H   1.88885673540006     -0.15908856781401      2.57566563060260
  H   0.77398304648671      2.86922272314053      1.50685852624134
  H   -1.05694199236426      3.41297095353382     -0.88856801862220
  H   2.40255084981829      4.68051866240634     -2.50681209939195
