21
Coordinates from ORCA-job 19463optt
  Br  1.17997712182500     -0.51849086488244     -0.07267195823463
  C   3.02498939583874     -0.15759029346179     -0.05787271032336
  C   3.53461193048118      1.07517325014759     -0.05277764707590
  S   2.70718389975517      2.59890307587369     -0.05741182932190
  C   4.33450448360667      3.51211354836793     -0.04499280208190
  O   4.33872840931898      4.72142544355784     -0.04433356665284
  C   5.38489714501460      2.55732385248249     -0.03733910227567
  C   4.99295824682373      1.23108520046110     -0.04162115932888
  C   5.74788467819889      0.05835126208430     -0.03707992707370
  C   5.13858151410900     -1.18790486756384     -0.04214422450528
  O   3.75446618324973     -1.28357412651489     -0.05289796966725
  C   5.79937197866248     -2.43290357497388     -0.03728328075812
  C   5.10676820983067     -3.67627655375799     -0.04056297324481
  N   5.71622618906303     -4.82755524388891     -0.03559336590314
  N   7.07226614423663     -4.85155498107854     -0.02699129165873
  C   7.68493535943356     -3.67350384246448     -0.02452063005499
  N   7.16145475707477     -2.46124286995468     -0.02891027340969
  H   6.41122997570372      2.89251545809694     -0.02947928917320
  H   6.82760857994022      0.07444388458091     -0.02874590025986
  H   4.02376269471780     -3.70477140313865     -0.04734516064723
  H   8.77059310311541     -3.72996635397267     -0.01742493834893
