22
Coordinates from ORCA-job 19471optt
  Br  1.09554578545948     -0.37536191640471      0.14614499294400
  C   2.97051025419102     -0.19050083569413      0.05681269255225
  C   3.58912500515957      1.07131078797583      0.05629932872713
  S   2.87064430254173      2.64651309223987      0.12217350792953
  C   4.50135847627867      3.46900041462186      0.14087811599704
  O   4.56586739461418      4.68994033184864      0.18695796268885
  C   5.52207948653188      2.47265652318387      0.07350386435049
  C   4.97033779647440      1.17477629831206      0.02902309223701
  O   5.77061631099206      0.06095223597999      0.00545955239078
  C   5.15172019146141     -1.16843390073293     -0.01894705884111
  C   3.80636484548371     -1.32034793671964      0.00950314206123
  C   6.93381277343422      2.81517677792669      0.06603206494811
  C   7.94274306512873      1.95647311842374     -0.39426453791480
  N   9.23387420766629      2.27498786594224     -0.38821419352144
  C   9.54660873414540      3.47659030380423      0.08015727954874
  N   8.69287466650352      4.38724585854778      0.53245601076663
  C   7.40493974742665      4.05968206998080      0.52012681898151
  H   5.86442525329302     -1.97556540011394     -0.06117765525487
  H   3.39591413472877     -2.31996461006731     -0.00760375272384
  H   7.69200988015661      0.97912549814004     -0.78300786510163
  H   10.59945117220789      3.74031721118984      0.09233051280799
  H   6.70217651612072      4.79942621161518      0.87835612442639
