23
Coordinates from ORCA-job 19474optt
  Br  1.07032946036663     -0.03890776877809      0.20522479535003
  C   2.97985729686467     -0.07834592343834      0.11721547236979
  C   3.61700758678568      1.17183377696919      0.04977677034691
  S   2.83257101858806      2.72336881667168      0.03001759174065
  C   4.42232085666369      3.62384452401474     -0.07131214025549
  O   4.45583465231134      4.84169524349025     -0.11278921978143
  C   5.45783793629763      2.65148353831951     -0.08447432015596
  C   5.00704862696946      1.34414352085770     -0.01759752718069
  S   6.11850669051128      0.00345238860738     -0.02956859486163
  C   5.03313764731562     -1.37439493895259      0.12125751091277
  C   5.72887579822752     -2.59565005163640      0.19624865244162
  N   6.33915322561954     -3.57597296903089      0.26852594773712
  C   3.63609158461142     -1.30584004285958      0.14770418792435
  C   2.86953135884741     -2.60521570244469      0.17086900657313
  C   2.34745992740186     -3.00568222381548     -1.22332077688486
  C   3.42852071636552     -3.25729234275189     -2.17218826814718
  C   4.34903934978034     -3.45062089405733     -2.91373697892908
  H   6.49547015896722      2.94596175533859     -0.13885641434488
  H   2.01480928990586     -2.51787768844405      0.84062431179277
  H   3.50876998352123     -3.40281801964866      0.54720702220085
  H   1.70182356280539     -2.21490052582377     -1.61047071803046
  H   1.73557420391313     -3.90651748340555     -1.13192579403937
  H   5.18442906735942     -3.61674698918171     -3.54943051677893
