22
Coordinates from ORCA-job 19483optt
  Br  4.59268422649229      1.31869594857187      2.34795076552657
  C   4.89118991871486      0.45656445417975      0.67790184119337
  C   5.94367386026681      0.84697766140005     -0.12113562110620
  S   5.84888147437511      0.17148698571174     -1.76286401316912
  C   5.61449879387242     -1.46597022990357     -1.13229258977839
  O   6.68068922550269     -2.34547477294272     -1.42293376767184
  C   7.54732729594904     -2.19623738639579     -0.35985706722420
  C   8.44916097768179     -1.20549621986927     -0.26990808237197
  C   8.80064274978825     -0.27199984725441     -1.37539350903007
  N   8.89174038946490      0.99683251338688     -1.31110631573154
  C   8.32444189046530      1.73148159238992     -0.28560297590766
  C   7.06153454546313      1.66522545354054      0.23425460292402
  C   9.15933015944614     -1.05899115058123      0.96437010833177
  C   9.75767150781465     -0.94920417884269      1.99942202681627
  N   4.78365707723980     -1.74973263260810     -0.22649319695520
  C   4.07017011906173     -0.72658157917339      0.44113323764864
  O   2.96350061375103     -0.93253930250351      0.92630406575698
  H   7.36700038727446     -2.87419625850774      0.46675863563876
  H   9.08519610978361     -0.75184091416094     -2.31048684600204
  H   8.94177683844720      2.56141119086584      0.04315608280778
  H   6.86348528751311      2.37483504375585      1.03088290442842
  H   10.26774655163151     -0.83224637105907      2.92393971387563
