28
Coordinates from ORCA-job 19480optt
  Br  0.50005262267570     -0.19607768179090      2.02208192676134
  C   2.76348210027630      0.92237350534842      1.44955178719086
  C   3.54072405744590      1.46923877968510      0.49002633267860
  S   3.17888051511070      1.76964881221495     -1.18172894029932
  C   4.83331479542919      2.47012572346521     -1.46709268424042
  O   5.17350403056392      2.88414536369613     -2.56039684517656
  C   5.58948212411034      2.43120664229610     -0.24807200336561
  C   6.99363879016522      2.94402259744122     -0.21276124288091
  C   7.07474859275426      4.47177189165898     -0.12196472342810
  C   6.53571226558822      5.00932638277997      1.19597888759728
  C   6.61804227872758      6.53823203928680      1.26007965357579
  C   6.15917970627090      7.08294434063006      2.53564313659456
  C   5.77792823427937      7.49965224333719      3.59348546574309
  C   4.88854432155668      1.89497685997035      0.80477923508777
  N   5.37728087431058      1.74559386319450      2.08303679551634
  C   4.58146530167539      1.21866791414878      2.95329574409010
  N   3.32138612970551      0.81048056292307      2.68872465232586
  H   7.50439027171202      2.62189358475409     -1.12384751332188
  H   7.51049904419049      2.50032695219469      0.64208829832234
  H   6.51380204025731      4.90137707336337     -0.95760189433275
  H   8.11735823258253      4.78772922616267     -0.24080353527311
  H   7.09672852060200      4.58086824164557      2.03042346138435
  H   5.49791269097386      4.69642519278414      1.32891332459476
  H   6.02044087575113      6.97136561782014      0.45346491877493
  H   7.65007047641340      6.85916559050088      1.09109501523367
  H   5.43185320280406      7.86485720448297      4.52964553978232
  H   4.92096775530994      1.08161725895887      3.97517853932901
  H   2.73761014875718      0.39504421704647      3.40477666773563
