22
Coordinates from ORCA-job 19493optt
  Br  1.16827707363948      0.36903504573107     -0.38848171558675
  C   3.03116475780710      0.18264076885253     -0.19534324524197
  C   3.64746898394240     -1.04449018434878     -0.07875446254362
  S   2.66458457364324     -2.48430232969213     -0.10491919616741
  C   3.79654888113255     -3.87304114617396      0.06230932728856
  O   3.26747081199584     -4.97950838304432      0.05922329409598
  C   5.17338076935967     -3.59499971808121      0.18386840774172
  C   5.74852378697059     -2.33422421524391      0.18105330858331
  O   7.09859322447509     -2.17998424300498      0.30224640164631
  C   7.88765232975112     -3.33877578548172      0.36764696328718
  C   9.29719831822548     -2.95392463191031      0.43199691551396
  C   10.46116833305276     -2.68088779065996      0.48441150184602
  C   5.06938054433121     -1.09014740258136      0.05869471556728
  N   5.82928773744939      0.02552244824372      0.07531799896486
  N   5.14411392360498      1.19240813264313     -0.04219865744342
  C   3.79669928119201      1.40775958784532     -0.18344133061219
  O   3.35696212116783      2.54790073902159     -0.28395257235136
  H   5.77977432343385     -4.48232402557267      0.28398991058192
  H   7.72751150251860     -3.96850631043129     -0.51416563439653
  H   7.63701239588863     -3.93432532883305      1.25241811497212
  H   11.49123799838309     -2.42240066435927      0.52767137358076
  H   5.71598832803504      2.02157543708156     -0.03159141932675
