21
Coordinates from ORCA-job 19497optt
  Br  2.04264785094513     -2.74242965612038      1.18177506392975
  C   3.49419263679948     -1.63156265097605      0.59770306532260
  C   3.53496816235027     -1.09806896674344     -0.62096521572420
  S   4.66157476445911      0.22490712239868     -0.93876622185436
  C   6.07901380921695     -0.16521014157616      0.07763380273481
  O   7.07690769490532      0.50402254178884      0.06558752889872
  C   5.84450410976415     -1.44845171166446      0.80231785710949
  N   4.58818251128591     -1.61937349703783      1.43132584223658
  C   6.62880330355799     -2.45003769748209      0.39397555500405
  O   6.46018795459938     -3.76984953114320      0.57522069058316
  C   5.19519549319857     -4.37034414979288      0.49552767396903
  O   4.88496760959245     -5.15789011612686      1.35072236608067
  N   4.48451376533321     -4.07681825216671     -0.60763916319521
  C   4.77374072635558     -3.27386479523526     -1.76489805284663
  N   3.73911372549509     -2.67912960131597     -2.40244696220426
  C   2.92590061356929     -1.76183238694467     -1.86671032230454
  O   1.84761626039683     -1.38088406250508     -2.30567964324803
  H   4.48945745000130     -1.43303175576800      2.41761497426442
  H   7.54039252274008     -2.20909888098218     -0.14069582838632
  H   3.54538463329426     -4.45662119500707     -0.56254061914533
  H   5.59073440213951     -3.65643061559916     -2.36806239122440
