16
Coordinates from ORCA-job 194optt
  C   -3.15831345929554     -0.38272222484453     -0.00000158492954
  C   -2.46765546775286      0.82432929301300      0.00000093499672
  C   -1.07599461390595      0.82576695564347      0.00000046600856
  C   -0.38284281583685     -0.37985553917380     -0.00000084289207
  C   -1.04945438597068     -1.61802090868495     -0.00000295314739
  C   -2.48914611017288     -1.61951899150610     -0.00000212915556
  N   -0.32989417085505     -2.77719038093005     -0.00000087871946
  C   -1.07815799894833     -3.90051367904360      0.00000117642593
  C   -2.45568483551244     -3.90194273900539      0.00000048839897
  N   -3.20629134829562     -2.78018307579140     -0.00000195187831
  H   -3.01436324590414      1.76090611896080      0.00000461015351
  H   -0.53120106841215      1.76345856229036     -0.00000037208093
  H   -4.24215751094232     -0.40861993981371     -0.00000059287785
  H   0.70105437631352     -0.40353934436015     -0.00000039059596
  H   -0.54041785113724     -4.84541078864422      0.00000338221994
  H   -2.99147949337146     -4.84794331810972      0.00000063807343
