21
Coordinates from ORCA-job 19502optt
  Br  0.98252537697307     -0.28303401064445      0.05973325018232
  C   2.84965225344162     -0.12481643802390      0.06222181573042
  C   3.51788801942504      1.04891047048209      0.06351774457750
  S   2.63622516851041      2.56271015016409      0.06364082152413
  C   3.87891091045449      3.89316106118370      0.06582846931071
  O   3.38774859116641      5.00914015889202      0.06621948160784
  C   5.29572894056401      3.58690366500086      0.06656521024938
  N   6.19808098115261      4.56083543771647      0.06776501970098
  C   5.72426097968500      2.22547839890455      0.06595326117294
  C   4.97203634678533      1.08774675861109      0.06469599091123
  C   5.54233504329360     -0.24005090716663      0.06403369809778
  C   4.78826163688337     -1.34501561558803      0.06292260440820
  O   3.42836296701841     -1.38421921219989      0.06228382368810
  S   5.72281604069393     -2.82020984046715      0.06219428545770
  C   7.23687408579947     -1.86810269820096      0.06328605409390
  N   8.43412218380164     -2.29722190279283      0.06321416654255
  N   6.89960721818150     -0.54339025309687      0.06431625377837
  H   5.69492121618729      5.44781259155374      0.06792691703021
  H   6.80579640432167      2.12748490241636      0.06657703288807
  H   8.47717812251504     -3.30931201953064      0.06239947861918
  H   7.62466751314604      0.15518930278641      0.06470462042848
