22
Coordinates from ORCA-job 19515optt
  Br  1.55683618287053      0.64389257813571      3.00844200199861
  C   1.51434664232461      0.35392512626684      1.17588714371570
  C   1.05557655850457     -0.64781842805850      0.39940302305466
  S   1.31129810348340      0.02454423633105     -1.21107544617729
  C   6.05608726623993     -3.81948318002462      2.19860239306646
  O   4.99388292812962     -3.30265872350057      2.67578967357110
  C   5.08815991893225     -2.67006890990077      3.99877516589033
  N   6.19880761942861     -2.57419136679884      4.59980150030115
  C   3.80139288650069     -2.23230350728713      4.46758983875656
  N   3.70629100981466     -1.64521478208887      5.66854535135951
  C   2.57462156057130     -2.37451502841132      3.73130312439817
  C   2.25020987701477     -2.77098631877890      2.47634470083754
  S   0.55553086257109     -2.89603472690951      2.04158159403861
  C   0.39095591101354     -1.94461764245567      0.55109725647891
  N   -0.30791959660547     -2.33584931567912     -0.43989921944581
  N   7.00538120888740     -4.29465790807923      1.74844618080551
  S   2.05013579862558      1.54126995638714      0.02315240005875
  H   6.98855863792033     -2.96340990498070      4.09303595564519
  H   4.63974822150818     -1.60346257538464      6.07457402481382
  H   1.74145918707308     -2.05221041829276      4.35061067996260
  H   2.94883852961703     -3.12159295522056      1.73561196392575
  H   -0.67519931442582     -3.27155620526895     -0.26961930705594
