23
Coordinates from ORCA-job 19517optt
  Br  1.53344988389971     -0.19837614110504     -0.43218450885596
  C   3.40394477903452      0.00135225273372     -0.26053448011043
  C   3.98754645140970      1.13819412242464      0.16098758722387
  S   3.08841413027715      2.57954648613859      0.55686592290743
  C   4.27863283106881      3.87657769831215      0.05726488680371
  O   3.78646768777960      5.00193131621767     -0.00298867713737
  C   5.64214209025737      3.53885053307124     -0.19486330666343
  N   6.50319346099438      4.46671238141682     -0.59756332082322
  C   6.22250720279773      2.20239389545086      0.08642090908725
  N   7.48317268690227      1.98550861695721      0.13176175336943
  N   5.37545725048790      1.12976328224539      0.36350124509209
  C   5.95223875196556     -0.11028796528587      0.76718299051125
  C   5.36415272000041     -1.22441268731545      0.34026504393564
  N   5.65358060661366     -2.58816875385749      0.50939726138475
  C   4.70309284598927     -3.31093805143243     -0.24912932766313
  C   3.79213787069509     -2.46389364587135     -0.73852834994364
  N   4.16925522911195     -1.16572314259829     -0.40223444123343
  H   5.98379268965318      5.33929530727254     -0.68863698010805
  H   7.93207642670629      2.87897641131316     -0.06581626656773
  H   6.84216519407263     -0.06507465087361      1.37066837637331
  H   6.62328542159605     -2.85488391529253      0.46445875578976
  H   4.74754209427851     -4.38197716635348     -0.32807830172086
  H   2.89275169440819     -2.66136618356848     -1.29221677165124
