23
Coordinates from ORCA-job 19512optt
  Br  1.49011951428494      2.22373150622974      0.04866740152305
  C   2.32064378628188      0.51204097150106      0.00111302884625
  C   2.07308091116237     -0.51812819182983      0.83506460103468
  S   1.17033613567483     -0.13576026884146      2.32180640119386
  C   -0.39152034105849     -1.15212293820432      2.11209566622056
  O   -1.46161949106282     -0.66297768016416      2.35657180782310
  C   0.04853827613214     -2.41182166594583      1.60405416657723
  N   -0.57779541185448     -3.13693755089910      0.71426323858340
  C   0.22867349714624     -4.01314929721296      0.07542567994405
  C   -0.49912130086077     -5.05005225703982     -0.65699356243114
  O   -0.02064817952208     -6.00954194525260     -1.23015699281390
  C   1.63461013840693     -4.01065194910255      0.02179580292917
  C   2.67343103001745     -3.06834396721678      0.24800108093324
  C   2.90366982927897     -1.72741072554623      0.51773418768691
  N   4.26516804878893     -1.37261789379579      0.23919432133273
  C   4.44309462330092     -0.34907840290835     -0.47743543726935
  N   3.37810346205267      0.45066741290523     -0.89746637351704
  H   1.06279558583474     -2.65950497903500      1.88603816598771
  H   -1.59363996953270     -4.88747445047806     -0.64038222668993
  H   2.01065105928708     -4.92736095593088     -0.41917742637058
  H   3.63620853902306     -3.51836435554475      0.01946610404399
  H   5.43196011209980     -0.03755396950592     -0.79803068105760
  H   3.57826014511830      1.28341355381848     -1.42464895451042
