22
Coordinates from ORCA-job 19516optt
  Br  2.34347594652668     -1.08795648593068     -1.71733958330371
  C   3.12160715731114      0.28419518931757     -0.62007131783948
  C   2.29012009427624      1.03076870488291      0.24138909801493
  S   0.72065997892465      0.47218090316377      0.76557873683069
  C   -0.19919540526535      1.65947669875521     -0.14578935278500
  O   -1.36334740928925      1.93134018397351     -0.00477365595652
  C   0.71571182276780      2.38117282640889     -1.12581779191500
  N   0.91261815569934      3.64134474138718     -1.17719160781437
  C   0.40915977139970      4.47642362965671     -0.17112852020501
  N   0.01440994805038      5.65887371158632     -0.41288673530986
  C   0.30993288395171      4.04310813142857      1.27190690599805
  N   1.18719002289722      3.49745490649734      1.99326725979409
  C   2.50067897026938      3.20613146883846      1.55313611271759
  C   2.97818260185923      2.13308113916234      0.89385090096379
  N   4.38375537393179      1.98463821995123      0.83330648533530
  N   5.06497640910780      1.37947317755151     -0.18984624741836
  N   4.38868571219291      0.50238812042606     -0.88756457287583
  H   1.09858466283948      1.76126799106387     -1.93433655559329
  H   0.15664814448487      5.85117866483099     -1.40630694112304
  H   -0.64358453901214      4.29848295200624      1.73091629878190
  H   3.23003000385745      3.84977224358069      2.03781092288362
  H   4.92069969321893      2.75720288146127      1.19489016081953
