22
Coordinates from ORCA-job 19520optt
  Br  1.35351608339431      0.44261240787210      0.46614351158698
  C   3.10062358284464      0.02523702990826     -0.07277019200033
  C   3.71616839965352     -1.12363745420778      0.20255363165525
  S   3.06704596728504     -2.55727069175377      0.94305938640878
  C   4.58368330853073     -3.48375540727184      0.48220638372361
  O   4.68371883192340     -4.69997691946016      0.65911951866715
  C   5.53592503259759     -2.59728147776147     -0.09630898417798
  N   6.70407162726936     -2.96485555570054     -0.57811030584149
  N   5.07251310087876     -1.26778457038762     -0.14438109937273
  C   5.79642696188092     -0.05017849078706     -0.22322521981760
  C   5.10493049443099      1.05660925110940     -0.51116732739111
  O   3.74108653084996      1.04616768161293     -0.74352009542253
  C   7.21605150874880      0.08137592774884      0.11764984034450
  C   7.89911463787190      1.15109525951192      0.65722462221347
  N   9.23468063715607      0.88036943485530      0.71508193967372
  C   9.34904043510215     -0.33999245304961      0.22896305165577
  N   8.16804034047071     -0.85873489224714     -0.15062076780931
  H   6.79302931574274     -3.96532755172932     -0.42167817660346
  H   5.54895854144876      2.03727483747409     -0.57013247447056
  H   7.48955757543543      2.07997211032385      1.02110171104195
  H   10.27315343119313     -0.88947573681360      0.14476171846931
  H   7.84466365529100     -1.83544273924674     -0.44995067253340
