18
Coordinates from ORCA-job 19529optt
  Br  1.11557434184306      0.20391389128823     -0.35257706625414
  C   2.97147662462608      0.06882718253322     -0.03008053943750
  C   3.66388329033520     -1.09950642615591     -0.13949884663795
  S   2.74261578405209     -2.55916774213684     -0.46125478081621
  C   3.83606468229669     -3.95107123958186     -0.16606391354661
  O   3.33557136653846     -5.04044203937410     -0.30182828105084
  C   5.24977411655156     -3.69602853051540      0.19088152594095
  O   5.99158219293690     -4.65646221627073      0.47396985541421
  C   5.76771294938785     -2.36154266919106      0.14484547619112
  C   5.07967945680678     -1.17012462267223      0.01156569073159
  N   5.83987454572470      0.05997822068024     -0.02354343079621
  C   7.19753036480089      0.03661176197387     -0.42800814043738
  N   7.99079853390053     -0.93661848103656     -0.35878545418566
  S   7.52782767438032     -2.43109088433470      0.26276831233733
  C   5.37561974163041      1.32342754963052      0.25703170023732
  O   6.09639044746959      2.29294067714459      0.33446416447628
  S   3.64772536290092      1.57910462874176      0.52158365924297
  H   7.54629852381789      0.98825093927696     -0.80746993140927
