21
Coordinates from ORCA-job 19534optt
  Br  0.99945833622978     -0.16235503444611      0.07688278394996
  C   2.88289835116861     -0.02640445413121      0.08741649267499
  C   3.49212589810329      1.21333569915229      0.06631253341923
  S   2.63352321676043      2.72295457904809      0.04609845486808
  C   4.16375662773744      3.69042193196077      0.00875273082685
  O   4.18481292202648      4.91453558157947     -0.03468220370911
  C   5.24124354615879      2.76612609923044      0.03890296959189
  O   6.54664077433053      3.20259070229442     -0.05929795837915
  C   6.94396792991978      4.23336416812099      0.73421468662642
  N   8.09660141183745      4.72707509483053      0.68304669138439
  C   4.90031655888554      1.41571888509644      0.06359343446635
  C   5.79457356717013      0.27239467043673      0.08562962748895
  N   7.07209481166704      0.29356452527778      0.07597539996359
  C   5.14550207602592     -1.10526510959744      0.12888701793067
  N   5.84427653333191     -2.15483560722695      0.17728519861788
  C   3.62313660616969     -1.25727870150899      0.11344512713651
  O   3.12257681089408     -2.36648579803728      0.12533042596168
  H   6.18770145459674      4.58891068588043      1.42716914374919
  H   8.64838664594750      4.26546893112436     -0.04115636152695
  H   7.41877391236250      1.24792687755676      0.04125362171531
  H   6.82963200867630     -1.86676372664151      0.17994018324326
