18
Coordinates from ORCA-job 19536optt
  Br  1.81722190333104     -1.97837727649230      0.64265454390529
  C   2.91656485045576     -0.64669036237670     -0.14325512972209
  C   2.99040726151958      0.66276642600135      0.25104890983340
  S   1.81275198484082      1.23990898907501      1.43562958059620
  C   1.06770114616832      2.64884888590404      0.64319709812691
  O   0.14203309626631      3.22265050419823      1.13535946216860
  C   1.78624640234409      3.09607457346498     -0.63662085595453
  O   1.24611780395932      3.02496081773512     -1.70282482854664
  C   3.16848295204038      3.71010917113421     -0.39150200821645
  O   3.18904280425104      4.93930848178678     -0.37487922402054
  C   4.26061774014211      2.81723432706708     -0.21866539989698
  C   5.56364618370191      3.39278818916436     -0.20740639463953
  N   6.61466732170343      3.86209175220653     -0.19323977296942
  C   4.14059163912857      1.40522302601057     -0.16111228793987
  N   5.26526310509615      0.64445368376755     -0.48216841647060
  C   5.11846176390504     -0.55948416450612     -0.80425018139676
  O   3.89283316828327     -1.19039491872406     -0.93476537079721
  H   5.94034887286282     -1.22647210541664     -1.02919972405978
