18
Coordinates from ORCA-job 19539optt
  Br  1.01166966343165     -0.37127921031038     -0.27358605075101
  C   2.85876647314102     -0.09837849852573     -0.04044511493716
  C   3.42196446867673      1.13256397439686     -0.05486337651333
  S   2.50292570797937      2.58595493771566     -0.34587833829307
  C   3.61543859795865      3.93603282441125      0.22066934917505
  O   3.02963630701244      4.99077371115238      0.44673137019063
  C   5.02456064271111      3.71943939425622      0.27288395739460
  O   5.86865684794960      4.58380598924494      0.49741700205784
  N   5.54055119724045      2.35895637711443      0.08398706930242
  N   6.70688159558025      2.36692859525580     -0.70875632631489
  N   7.52729567815286      1.47966479039984     -0.63296911365822
  S   7.27822294689253      0.18860035446573      0.57314513099913
  C   5.56997833780379      0.02024010908314      0.34803210931062
  C   4.96844949918555     -1.29243913896209      0.27642211832999
  O   5.53592876480923     -2.36607360273392      0.39441585952403
  N   3.59142853235036     -1.24407607928598      0.10558582834542
  C   4.84681190344946      1.17025420914896      0.15751851964943
  H   3.12283283567489     -2.13796873682713      0.10469000618853
