21
Coordinates from ORCA-job 19530optt
  Br  1.03925446632952      0.74087410582025     -0.48066933801045
  C   2.80951502939744      0.29109505941010     -0.08562356377707
  C   3.30391437470513     -0.96143088038658     -0.03565924231847
  S   2.28389524622544     -2.35877219749790     -0.25252417565108
  C   3.31476795996354     -3.82943047107499      0.08945119248919
  O   2.71073924096312     -4.87333560747899     -0.00149631370237
  C   4.73736256289633     -3.65453751936654      0.42280327029669
  O   5.43033830022188     -4.66665038551465      0.67482048045293
  C   5.30879594268917     -2.33490924736931      0.43256859526365
  C   4.70418298055401     -1.13164926766399      0.20688386445757
  N   5.46452618414339      0.08123957304264      0.15560542983929
  C   6.91409209814721      0.01825515177027      0.09739726308899
  C   7.54902551356452     -0.19771274001577      1.40184966290878
  C   8.07998351808602     -0.37796767435097      2.45926109927766
  C   4.92503128231619      1.33328907377692      0.18835459978350
  O   5.56564482807824      2.35317780467931      0.22960066321619
  O   3.57195327783213      1.41465105306237      0.16657135946171
  H   6.36590522256208     -2.35784553222167      0.66593940827207
  H   7.26564065028871      0.96249229716742     -0.31318791849912
  H   7.19203803947376     -0.79027812790923     -0.58074378817222
  H   8.53639328156208     -0.54955446787869      3.40379745132254
