20
Coordinates from ORCA-job 19537optt
  Br  1.00704613783028      0.38062726015305      0.00671326248197
  C   2.88139157238065      0.26452980749873      0.01749136268679
  C   3.52247387450764     -0.96881633918080      0.02980663650486
  S   2.71073104691807     -2.48866609787154      0.03983931822082
  C   4.27813135881055     -3.43138785359690      0.05220257036029
  O   4.28236673373256     -4.65517357591282      0.06196820098976
  C   5.38661577522843     -2.50861137056138      0.04922534108405
  O   6.58277746824095     -2.75662208130874      0.05689031349655
  N   4.89142707837074     -1.15022180974667      0.03527355980831
  C   5.70036802091576     -0.01777727231229      0.02667728591989
  N   6.98670422444656      0.24130213327675      0.02421709369716
  C   7.07121489352510      1.63052627400141      0.01154397448385
  C   5.82131323714777      2.20398858722018      0.00629243626211
  C   4.83014263182153      3.36445771649889     -0.00728034502270
  N   3.48152112936487      2.73103878033240     -0.00360414127097
  C   3.66032359130322      1.45405360251933      0.00960534991986
  N   5.00258656625445      1.12706056262674      0.01669764998157
  H   8.03624230980970      2.10830016424242      0.00631457423585
  H   4.93486495237620      3.99427742961704     -0.89426138430097
  H   4.93175739701492      4.01311408250417      0.86638694046092
