18
Coordinates from ORCA-job 19542optt
  Br  0.94726591330148     -0.15487874060751      0.11039500916443
  C   2.84204910741976     -0.12439610353023     -0.02395340253548
  C   3.57789254993843     -1.25306475609628     -0.14488149999291
  S   2.73423804749434     -2.80646366379807     -0.20303968453121
  C   3.82509075713944     -3.65629927570632      0.99059075364021
  O   3.84804407693275     -3.47296557146324      2.16228985833925
  C   4.69645900049314     -4.66487882060012      0.24822110450386
  O   4.50514714570075     -5.84746223129425      0.32291067545615
  S   5.88174194072792     -3.95796812771408     -0.83808073970858
  C   5.99544469246590     -2.22395422327104     -0.40928210150306
  N   7.27007534903644     -1.88242993830161     -0.38594098741098
  S   7.41327049093913     -0.23986925709012     -0.16096471087240
  C   5.69942703433623      0.03927264482399     -0.07129847179003
  C   5.02226356718011     -1.20511075987623     -0.23641086072226
  C   5.18196365107722      1.33355860853347      0.10097395999564
  N   5.78600336003499      2.46245748078748      0.28573656530062
  S   3.40341718687319      1.52850852197482     -0.00803172781439
  H   6.79520612890872      2.32694421322933      0.32476626048114
