21
Coordinates from ORCA-job 19547optt
  Br  1.31132743246359     -0.43810414690144      0.09830775457497
  C   3.15089235358042     -0.05930103050512      0.01695937602829
  C   3.68365438226866      1.16941068860217      0.19664955559470
  S   2.61707648896830      2.57990395661491      0.29944613254785
  C   3.70964575326731      3.98613860203808      0.10679694391418
  O   3.15392084597142      5.06096457985654      0.06558408511776
  N   5.05322670103937      3.79938626526589      0.02349206116805
  C   6.02222309767876      4.88650804397622     -0.09203737475349
  N   5.77802709542524      6.13785108446922     -0.24175352800793
  C   7.28787135467404      4.23284490536460     -0.00258083819601
  C   7.10971352351718      2.86907608595909      0.15318245254842
  C   5.74286756024754      2.56576291723378      0.16310445879877
  C   5.07953343606410      1.35320604156423      0.29940566473655
  S   6.01931102919831     -0.04936216705437      0.79774875262640
  C   5.17644112007141     -1.35167838222102     -0.05951587215057
  N   5.70112072222063     -2.45099250546868     -0.38712626780248
  O   3.86245770813255     -1.19055850756382     -0.32068922872573
  H   4.77931306809490      6.31143839077219     -0.26406796140441
  H   8.21557719323199      4.77650409073364     -0.06152042863778
  H   7.88029995448608      2.11975953271949      0.23889209529758
  H   6.69449917939816     -2.43775844545563     -0.17727783327512
