17
Coordinates from ORCA-job 19543optt
  Br  1.53785386914966     -1.57571831385673      1.72110486973620
  C   2.93036046097717     -0.62376330928313      0.81870536134219
  C   2.85740584540108      0.75182858781931      0.66096345242457
  S   1.54634164137576      1.67348149836394      1.38502439417756
  C   1.04319849700312      2.47941035103133     -0.17922205941223
  O   0.49696839276639      1.93863124738267     -1.08278773122204
  C   1.51622591610879      3.92482196538909     -0.19227949619771
  O   0.77010745099288      4.86744606826166     -0.17452720646746
  S   3.27740145912469      4.09712059203689     -0.23250129598262
  N   4.08446136561097      2.68790922223229     -0.32496971904103
  C   3.93579608972992      1.43523120553582     -0.00712058861152
  C   5.11154764730999      0.58611038908194     -0.42622031998532
  O   6.10364479854065      1.05518736945520     -0.96275267840881
  C   4.96375714295536     -0.83253969934744     -0.16530666600141
  N   3.92683619617660     -1.39805683299381      0.42576511364484
  C   6.02589897948446     -1.70628205794673     -0.58400534314847
  N   6.85719424729246     -2.42481828316235     -0.91887008684674
