25
Coordinates from ORCA-job 19559optt
  Br  1.01853365245707      0.21242226769290     -0.81211924151954
  C   2.86225608732687      0.17403292513587     -0.38979223235131
  C   3.55339756879914      1.29524517843662     -0.06855774274234
  S   2.91198051639310      2.89191422804063      0.12331994892531
  C   4.62346153079007      3.50944764712578      0.64635618854159
  O   4.74250654700917      4.67750558478181      0.94624172838187
  N   5.49835009161834      2.51318455220550      0.59804803685262
  C   4.97334693217331      1.32935389948959      0.19690951297896
  C   5.76817397952863      0.18269813683246     -0.07598799081376
  C   5.24868216973602     -1.03407310863033     -0.42141629243955
  S   3.55297766545923     -1.43242690428809     -0.40453874547280
  N   7.17861731430535      0.30755341931475     -0.03253444680158
  C   7.83924034176770      1.32600366897640     -0.84188378077412
  C   9.19729517728827      1.62885046105949     -0.23394272016495
  C   9.96672863531798      0.32850590005136     -0.03973573482523
  N   9.21388642449744     -0.66825744799538      0.71094505455446
  C   7.94173819667548     -0.59250815500192      0.65715316881752
  H   5.89564290889991     -1.83864518292115     -0.74197008916902
  H   7.20893819122532      2.21148849305060     -0.85334831362438
  H   7.95419531229939      0.95112930652132     -1.86659038211371
  H   9.04380024828007      2.11512260865981      0.73215128156866
  H   9.74711119149321      2.31901674272472     -0.87613168147742
  H   10.90333784341962      0.51167812216484      0.49141382655714
  H   10.24114363986103     -0.08881325659750     -1.01653764555586
  H   7.35065783337809     -1.30242908683008      1.23154829266744
