19
Coordinates from ORCA-job 19555opt
  Br  5.03882307231423     -0.87946235731840      3.21404631436496
  C   5.08289141976047     -0.56112642677653      1.34615412657993
  C   4.81574764597263     -1.54838311172223      0.44525499907790
  S   4.40459873066842     -3.19752426382591      0.71827626591936
  C   4.29462251814437     -3.46270794575616     -1.14978311003374
  O   4.00509248328251     -4.56070280486084     -1.55648837158531
  N   4.56930665142986     -2.32691739458764     -1.79791517860327
  C   4.84775468580707     -1.29105051083760     -0.99221905049602
  C   5.16087260527462     -0.00494225586102     -1.44793452208549
  C   5.42904130754617      0.97646659375420     -0.51441565884204
  C   5.40257698374668      0.73688725757607      0.88721038791915
  C   5.72452904177197      1.92411156304840      1.50502721383737
  O   5.94895301998358      2.90583281018479      0.58615355312872
  N   9.30298543559063      2.23233412512124     -0.73632232543414
  N   8.69349804610560      1.60553541992262     -0.09128310889380
  C   5.78365269616359      2.37318213166057     -0.69611509423395
  O   5.95000022755004      3.05713951714881     -1.67271495584859
  H   5.18511030392223      0.19953305492637     -2.50964435668488
  H   5.82294312496489      2.19079459820323      2.54271287191386
