22
Coordinates from ORCA-job 19552optt
  Br  1.43625333217487      0.69910881507443     -2.62176180852378
  C   2.00684417584439      2.08524093801330     -0.62612694563054
  C   3.43465057983703      2.15374846705935     -0.38871673530771
  S   4.32920397244531      0.92807820673937      0.42278052356001
  C   2.86573729631133     -0.02854387940954      1.07297696409148
  O   3.17240323374009     -1.09949982020438      1.53325271448695
  N   1.63564892975347      0.52091361274951      1.11689489766126
  C   1.20672318967530      1.56289774369535      0.41973042122929
  N   -0.08517025699180      1.91592808232074      0.83775775412406
  C   -1.06621302055261      2.91293145011299      0.88601558544021
  N   -2.06484744974364      2.63456377085890      1.64039616592285
  N   -0.96864864810777      4.10565297222076      0.17695614346916
  C   0.03825752107023      4.29013635940676     -0.77998513071498
  C   1.30610825129522      4.29429937709113     -0.37878063985070
  C   2.23429687601508      3.48494871748987     -1.19579119865703
  N   3.67909358655107      3.35509001774711     -0.82222534572474
  H   -0.37537783944556      1.20762474706364      1.50271184074430
  H   -2.72984752491769      3.40055412101318      1.65996849076341
  H   -1.87392446267260      4.51380275000180      0.00576543726717
  H   -0.22224939827522      4.13093348302658     -1.82392121544899
  H   1.53817581911840      4.41747003238341      0.67541885646439
  H   2.06688183687509      3.55912003554571     -2.26931677536608
