20
Coordinates from ORCA-job 19557optt
  Br  1.13304729302456     -0.49563930439793      0.06054825732644
  C   2.96856968231649     -0.07105739496384      0.08575177753567
  C   3.47958910935913      1.10519889851370     -0.31184687542615
  S   2.77054485749084      2.54362412753670     -0.93656794813084
  C   4.55035686680418      3.31674756252136     -1.06783754381241
  O   4.62675657023543      4.43762342068347     -1.51001187000180
  N   5.44332983704062      2.45104587569526     -0.62724355091889
  C   4.91938441003585      1.26684747345536     -0.22058855099954
  C   5.64214151128628      0.22617893251574      0.35918403911483
  C   7.12122437760791      0.42872064698368      0.58149486293083
  C   7.72949277388215     -0.62878400756310      1.42335927037878
  N   8.55616355247196     -1.53210959900420      1.01652704027923
  O   8.84304487314295     -2.26107029853024      2.11405170561020
  N   8.16397821548270     -1.74465155475727      3.17677514565603
  N   7.49759836200730     -0.77137894814751      2.78674291661091
  N   5.13780225386322     -0.93016551047689      0.75205615317433
  N   3.79801481221780     -1.12948699980139      0.46018708119249
  H   7.27353229355045      1.40518148679328      1.04518186804567
  H   7.63677713684944      0.45405467462212     -0.37935572001974
  H   3.38465121133060     -1.81987948167830      1.06759194145392
