21
Coordinates from ORCA-job 19558optt
  Br  0.96038313359190      0.23242510261657      1.10364390817797
  C   2.70538305741610      0.08550090876063      0.40919968498839
  C   3.47672337885367      1.16860575679727      0.06644957941739
  S   3.01325351766445      2.83597874156337      0.06348233135400
  C   4.74719385914403      3.30430554774670     -0.51935676030422
  O   4.99369209872016      4.47213046034468     -0.72444877570369
  N   5.49590541354234      2.20653002716040     -0.62737749924986
  C   4.83925116890429      1.07505116880519     -0.31185205587394
  C   5.54356462047914     -0.19249619015956     -0.22265711701677
  C   6.97332641797672     -0.16808035627008     -0.22813216068506
  N   8.12207524136192     -0.22384904881191     -0.20750368457998
  C   4.92933271658028     -1.39760700069969     -0.04894255219461
  N   5.57041887676912     -2.62221105807626     -0.00100928128827
  C   6.62832066362482     -2.96065556676254     -0.91510354154550
  C   6.62427156404560     -4.42807284649580     -1.22052959092116
  O   5.83216371784121     -5.21359222458031     -0.77530809228143
  S   3.18923519681588     -1.56130849150282      0.06754535772633
  H   4.97525639804592     -3.41254608253041      0.21133648744824
  H   7.62458501356668     -2.70746480592966     -0.53382328326717
  H   6.53777522795443     -2.41612776215689     -1.86566300286011
  H   7.43288871710121     -4.75951627981883     -1.89794995134052
