20
Coordinates from ORCA-job 19566optt
  Br  0.96511939340625     -0.42039661155970      0.58995581588634
  C   2.77027527795019     -0.11342909938427      0.14118046102882
  C   3.37603581749835      1.14479378912146      0.24523559372340
  S   2.77371936971267      2.73168636743289      0.58415729685318
  C   4.50128341172324      3.41225768246392      0.38038854722684
  O   4.69851367366261      4.59682271296932      0.52508847983523
  N   5.36347210694872      2.41860932396661      0.08025719811254
  C   4.73778454620550      1.25730870265032      0.02391983559290
  O   5.49497129855797      0.13397795122008     -0.29601501374770
  C   4.79610728347989     -1.01834845598054     -0.28148476462893
  O   5.66827689929782     -2.04366335777602     -0.53017485448673
  C   5.14410692279174     -3.21676578645620     -0.91127972286005
  N   5.86309569539778     -4.24862985219917     -0.89925369504030
  C   5.20627779347818     -5.46242824151925     -1.32928697208045
  C   5.94913043233099     -6.12671222931134     -2.41146557623647
  N   6.49947405109196     -6.67009936785318     -3.25658043070358
  N   3.55842190342602     -1.20338345716572     -0.08144710173721
  H   4.09495929230334     -3.16941287773973     -1.20799400197233
  H   4.17786354655916     -5.31041230222041     -1.68032363687432
  H   5.16911128417752     -6.16477489065905     -0.49287745789116
