20
Coordinates from ORCA-job 19568optt
  Br  0.94103840197581     -0.06238671577124      0.41242942097056
  C   2.82500882636156     -0.04350072279589      0.18288294279970
  C   3.49714028861778      1.17162292416984     -0.00245610688509
  S   2.86207113625698      2.78502536075143      0.00471295938032
  C   4.56527439194153      3.45954716665726     -0.26713166799177
  O   4.74472374431508      4.65187930227408     -0.34890523372290
  N   5.45995990817861      2.44513345912070     -0.34506825530830
  C   4.87179142889318      1.26412586296681     -0.20218550615386
  S   5.91621721058128     -0.15312063612788     -0.30225834485819
  C   4.69531788030837     -1.36285792185412      0.05980790978257
  O   5.32506980801634     -2.58658376057196      0.20415456015879
  C   4.77083658286544     -3.75016018972860     -0.21323772352920
  N   3.60862971482626     -4.01592853904731     -0.60158108918151
  N   5.73643263326416     -4.75903950016471     -0.15150546878205
  C   7.07210583385240     -4.62223070881676      0.10405278546146
  O   7.84282002565156     -5.55142760232070      0.08473136820295
  N   3.43651923477258     -1.22663299034553      0.24075039801135
  H   3.00460121027643     -3.20136713346929     -0.53180088186464
  H   5.39890686628446     -5.68053223488646     -0.38996193984492
  H   7.37153487276005     -3.59356542003964      0.33056987335473
