20
Coordinates from ORCA-job 19564optt
  Br  1.02430898821755      0.05498672333728      0.36381048164782
  C   2.82559403041770     -0.01571078676878     -0.20465731077206
  C   3.61178544116442     -1.12804082107888     -0.01890286790261
  S   3.05622093781468     -2.74744575654144      0.31626219505531
  C   4.77657040900341     -3.37523534297309      0.14533429804396
  O   5.01189558219693     -4.55826429944521      0.25807692191440
  N   5.62572428359927     -2.35769845507140     -0.09588759820594
  C   5.01829654053730     -1.16698516071668     -0.15113537411448
  N   5.79377224726895      0.01567153042575     -0.22014145572560
  C   7.19664460225273      0.00847564820725     -0.16547631489807
  N   7.97646470383808     -0.97364097257084     -0.31566724475404
  C   7.87767329860181      1.33205047487601      0.16289586952298
  N   9.12222367607057      1.46283926120440      0.22727227531052
  O   7.11258270940079      2.41532217576087      0.46258029627387
  C   5.78524913916173      2.37449881323704      0.15689657124013
  C   5.14665517619986      1.26532411120839     -0.19888779245059
  S   3.53291922518356      1.41672481012758     -0.88565929690703
  H   7.45137057489600     -1.83839670305682     -0.45657030650222
  H   9.52724452996281      0.55129129742449      0.00875808151291
  H   5.31180390421172      3.34223345241410      0.18209857171075
