20
Coordinates from ORCA-job 19563optt
  Br  1.19595295520831     -0.29368152020860      0.05218950289144
  C   3.07313475874461     -0.13659801663803      0.05887476848392
  C   3.68120337484431      1.12930836305058      0.06764960360250
  S   2.94485604926119      2.70529045812505      0.07503253005135
  C   4.54710899388299      3.51944064334130      0.08189769775961
  O   4.71051683918712      4.71741617645753      0.08821677238792
  N   5.51100724694328      2.55965606133039      0.07858770482335
  C   5.06692206240517      1.24153141958706      0.07058174619886
  C   5.82361731430182      0.09647209555319      0.06480082263147
  O   5.24507484418128     -1.13631928906018      0.05705839861565
  C   3.83396566255988     -1.32210206910259      0.05270896346731
  O   3.47127233404390     -2.47651559769372      0.04401861699254
  N   7.20183516238118      0.03331917464192      0.06491219112225
  C   7.97479294881838     -1.08047675980517      0.05928370484660
  C   9.26081234709906     -0.58460598757054      0.06196752668875
  N   9.21810284703583      0.75757947292202      0.06866273159977
  N   7.97011990001139      1.14226454052421      0.07053923297156
  H   6.49870481142107      2.78069780572484      0.08087059465895
  H   7.54528941334571     -2.06415037444366      0.05388525249698
  H   10.19371013432348     -1.12152659673560      0.05926163770923
