20
Coordinates from ORCA-job 19561optt
  Br  1.10478233677092     -0.58672768412730     -0.26979813167794
  C   2.99033339072036     -0.42164395943891     -0.16503865206026
  C   3.54580523808588      0.84305558712590     -0.18295007475508
  S   2.75135108343446      2.36785741722951     -0.32792760901691
  C   4.38913548596080      3.22661321849707     -0.08996211155034
  O   4.44040171765938      4.43128416547001     -0.10070244674084
  N   5.37360030553942      2.31615134211547      0.07578257197328
  C   4.93309261412139      1.06311612110298      0.01992262230834
  C   5.84154730363925     -0.06763883641417      0.20431293836401
  N   7.06227784348973      0.04435445424503      0.55402552467558
  C   5.25013257323505     -1.41717567459034     -0.09097849761866
  N   6.07260736562731     -2.33359160669228     -0.45696533777873
  N   5.50591466726173     -3.56361027894984     -0.87737347750356
  N   5.10384340405985     -4.23817285868429      0.36242145612078
  N   3.99775094489984     -3.89041927726052      0.79934600465789
  C   3.26403212322902     -2.82121112013940      0.34381834153294
  C   3.78423199734079     -1.59071928598020     -0.01329575165848
  H   7.26349418959253      1.04255434731889      0.65641763442876
  H   4.61648530642363     -3.34895662863054     -1.34726455274030
  H   2.20518010890862     -2.91211944219707      0.53820954903953
