23
Coordinates from ORCA-job 19574optt
  Br  2.90757528939040      0.34454833433978     -3.14416356345064
  C   2.83848707811393      0.71959665842482     -1.27448111413974
  C   3.55526217821922      1.76873496675942     -0.67872695271225
  S   3.55037156218198      3.31757569265983     -1.55261391928824
  C   1.77159396625388      3.61273685684119     -1.23093755531620
  O   0.92943314781495      3.66702841399301     -2.07616657432331
  N   1.49680327265230      3.61940670735027      0.14754335348272
  C   0.85829389720353      2.49965132250945      0.69386485905302
  C   -0.04573187849119      1.66726269436829      0.16594932395684
  C   -0.28381485806236      0.35970758874196      0.85547569436990
  N   -1.43164301014563     -0.20571945825768      0.96011966788076
  C   0.93044976458021     -0.20771734332754      1.48401360862498
  C   2.11313177211255     -0.19585934559169      0.80866755749188
  N   2.10741949538414     -0.19231079256138     -0.56990262512043
  S   3.73172778408480      0.06455624947560      1.49006741023019
  C   3.87702864565613      1.76418439378341      0.70447206830800
  O   4.13470050863164      2.71871661541319      1.42734528169136
  H   2.34542539578747      3.80342628781946      0.67643239184297
  H   1.28066355709448      2.25598660701053      1.66199589603776
  H   -0.55182051937348      1.88508379624968     -0.76763704155437
  H   -2.14536167245535      0.39490437073288      0.54571933161187
  H   0.89407703642212     -0.48826573581579      2.52811361246981
  H   1.29592758694423     -0.59023488091872     -1.02815071114689
