23
Coordinates from ORCA-job 19571optt
  Br  1.09558805070349     -0.23199401056916      0.05948948336368
  C   2.98553447079127     -0.13759810286689      0.05603444559599
  C   3.58118944360415      1.07284942265598      0.05505999437725
  S   2.66206730146771      2.56597873350001      0.05560446717613
  C   3.93919804612127      3.90665726087334      0.05258556718592
  O   3.43038525800712      5.00744643317546      0.05193584684694
  N   5.24190154183297      3.62040837646170      0.05181550721142
  C   5.70528466569770      2.37353082458969      0.05256519414977
  C   5.02767048978763      1.14736966352706      0.05383813497128
  C   5.72409909637162     -0.06168632539288      0.05430932504118
  C   5.10060954208588     -1.32274735562159      0.05488585328013
  C   5.80874959492312     -2.50986036172476      0.05484643991177
  C   5.20547098377693     -3.80803395165602      0.05468067148813
  N   5.79785858535548     -4.96346317626826      0.05486926938816
  C   3.75247435513485     -3.75249591832062      0.05399211960151
  C   3.07944697740540     -2.59063427541678      0.05432427222542
  N   3.69380472448191     -1.35554308501825      0.05520682604011
  H   6.79110709753432      2.29888919701782      0.05202583116195
  H   6.80635421857005     -0.05026868804060      0.05390376720558
  H   6.88907987181689     -2.43089447577811      0.05468214389895
  H   6.80798981256587     -4.82696626180254      0.05534824023845
  H   3.20165988229656     -4.68266873434532      0.05320703065407
  H   2.00347598966776     -2.57327518897929      0.05378956898621
