18
Coordinates from ORCA-job 19576optt
  Br  1.04767234943581     -0.31632029387493      0.08901646470197
  C   2.90321650562663     -0.09449457060605      0.08769545122755
  C   3.52604828162328      1.11087277904957      0.08737274389689
  S   2.60566488284055      2.59381684682185      0.08788847902729
  C   3.88957389753400      3.92002712233854      0.08659272674124
  O   3.39506661892773      5.02558314560719      0.08632952589689
  N   5.18805988091507      3.62366455496290      0.08639174273469
  C   5.67101493663621      2.37783720569761      0.08655229579173
  C   7.10978941879373      2.30018876820921      0.08654073738446
  N   8.25907452134552      2.28126928767613      0.08650455873331
  C   4.97896326768656      1.13213529869585      0.08670145088065
  N   5.69842491594490      0.01084341623947      0.08631386882858
  C   5.04154292141692     -1.15135956690118      0.08643648264100
  C   5.42403480235865     -2.48844208406670      0.08590538227127
  N   4.31848015563163     -3.25018765909772      0.08629650520378
  N   3.24721015536027     -2.51046350973699      0.08709579836445
  N   3.66858502157619     -1.23480240420408      0.08713564052156
  H   6.41657746634632     -2.90116833681067      0.08523014515267
