22
Coordinates from ORCA-job 19570optt
  Br  2.56903269351973      1.77982119577488      3.18008850018375
  C   2.18594261561828      1.09093081950225      0.74216498649942
  C   3.03102634541911      1.45117107661817     -0.26179086657305
  S   3.59730719580776      3.12899230012778     -0.38785727375753
  C   2.15390190242344      4.17507957037048      0.01564439602406
  O   2.40343471015429      5.23839078915063      0.50684030392017
  N   0.88772081819768      3.86933947513245     -0.48670979352043
  C   -0.01242837208476      3.14409375558365      0.01974651863101
  C   -1.36823026575395      2.85926808477279     -0.61511386342088
  N   -1.80962787306862      1.61084607496990      0.06703763733096
  C   -0.64496265463858      1.17806260166543      0.73552079762882
  N   0.00823265726056      2.34241558713266      1.13506769031108
  C   -0.04450794662684     -0.03389912228341      0.67223442445648
  C   1.39547609672840     -0.00607093586995      0.42268609752412
  N   1.88122519099637     -0.91738497408100     -0.44380072810708
  N   2.94816070769419     -0.63974114613485     -1.15415662018655
  N   3.43337612817611      0.57190634229091     -1.19735617396159
  H   -1.25682301558730      2.71682139323970     -1.68959460830549
  H   -2.05381893225431      3.68545600172874     -0.42765730892649
  H   -2.12450720171671      0.91463915719117     -0.59359963219487
  H   0.83103798965133      2.28071495731198      1.74371541647127
  H   -0.59296878991620     -0.88285300419446      0.28589009997284
