21
Coordinates from ORCA-job 19586optt
  Br  1.84097666499067     -2.17780583729144     -0.59257722363138
  C   2.61695746360589     -0.44776699617796     -0.56299458974918
  C   2.16071383314450      0.61877685859537      0.11202556669711
  S   0.86682571558438      0.30305049456330      1.29422834972065
  C   -0.17247558296546      1.78317550232979      1.36207121677265
  O   -1.29401805465570      1.66411072356188      1.75546032063561
  N   0.45275507186034      2.92954501405337      0.94094495058153
  C   -0.07904625235470      3.64425894691660     -0.18460237057797
  O   -1.27329103524081      3.85758374305454     -0.29775878166161
  C   0.92797060617299      4.04401679333481     -1.12277575001163
  N   2.24253929915189      3.85803162720576     -1.10978097755260
  C   3.09924279531467      3.01332825578130     -0.55610279210043
  C   3.11401877170025      1.75055299559709      0.04880963048670
  N   4.44908739126171      1.21270273456455      0.20853848409717
  C   4.87836354637730      0.19918224998364     -0.56264342702378
  O   6.00351186642270     -0.18193353501573     -0.73645135438057
  O   3.82387801979586     -0.45285842575440     -1.19718670833426
  H   1.45921519960902      2.84629798243750      0.91462263877588
  H   0.54629053167468      4.68893838706356     -1.90830706482412
  H   4.12258590384951      3.38791014387869     -0.63339762882525
  H   5.16189824470028      1.72890234131775      0.69687751090550
