20
Coordinates from ORCA-job 19585optt
  Br  1.16192493480207      0.18792432822988      0.46711627792258
  C   3.01083985394415      0.01164064151775      0.18669986632390
  C   3.61328575089490     -1.18038237993399      0.28948300000635
  S   2.79136161034789     -2.66948272404349      0.71710828008167
  C   3.96162721400007     -3.91135386654844      0.08817206370449
  O   3.53274571119159     -5.03812067913726      0.06251801710114
  N   5.20698450904909     -3.54538380446511     -0.27432503507948
  C   5.66206711338682     -2.31867702247703     -0.18068627833308
  O   6.96312644455294     -2.11400575647200     -0.40156011118944
  C   7.73500692199207     -3.27072517935259     -0.70181121153371
  C   9.09051110201565     -2.83565625257236     -1.02684043773862
  C   10.20581845648208     -2.50826540202963     -1.30977761067693
  N   4.99533489901336     -1.19730725607532      0.09979473959142
  N   5.78281902275810      0.02513984948247      0.29362492044333
  N   5.13340811212602      1.13142991798641      0.15612710701856
  C   3.79604138768415      1.24942702275274     -0.04327091280171
  O   3.24927143237476      2.31923426719134     -0.31304085481774
  H   7.29475763250982     -3.80975273687365     -1.54092654522485
  H   7.74133634047907     -3.94807418754373      0.15356172347452
  H   11.19273155039527     -2.20260877963594     -1.55996699827239
