21
Coordinates from ORCA-job 19582optt
  Br  1.98047609063689     -2.25678899766654      1.77197785629314
  C   2.57450917688735     -0.91343120713898      0.59381757491834
  C   1.78662102045295      0.18286741153148      0.30469185930354
  S   0.16894720840016      0.37205219868537      0.95763428638067
  C   0.36797475281855      2.11859528597129      1.67846853135228
  O   0.24435650650532      2.19549538935863      2.87153601054638
  N   0.50273092519202      3.11672114895423      0.81013465927966
  C   0.83864186753102      2.99917529808159     -0.46644322458962
  N   0.27386207104055      4.03443408030678     -1.23656806138380
  C   0.47011053556380      4.27269456333212     -2.56033774333324
  O   -0.05914953879548      5.18602375756488     -3.15677049162118
  N   1.67232160244956      2.22499030782059     -1.11323258917881
  C   2.29369825415851      1.12868611652917     -0.63062893234065
  C   3.57022508951199      0.84218267833449     -1.20910470963565
  N   4.32233612465047     -0.17162257639553     -0.93029111800480
  C   3.87596293717170     -1.10742825067847     -0.00925541353636
  N   4.61314313792495     -2.13451814898043      0.29541882792462
  H   -0.33534862490737      4.66103450442187     -0.73100579084604
  H   1.15354413737851      3.55354948236730     -3.02456338498392
  H   3.93107376960099      1.55477654602829     -1.94616449103661
  H   5.47396295582753     -2.04548958842818     -0.24531365550795
