20
Coordinates from ORCA-job 19598opt
  Br  0.78165848694834     -2.13971946462178      0.78626261391262
  C   2.35662798941652     -1.18431580917093      0.30369051487364
  C   2.31689643484225      0.14318480002451     -0.09277206349272
  S   0.72980928367165      0.91035866361323     -0.27079081404110
  C   0.90005977874621      2.43230277928445      0.65092775548756
  O   -0.03401073848214      2.93083941186793      1.20133420842923
  O   2.12589029439054      2.96285538746208      0.65756532236575
  C   2.77965038999773      3.01895723425024     -0.64150241342739
  N   2.56582341879986      4.04313983786536     -1.35550188570402
  N   3.65736657805995      2.04129577319759     -0.88148249665353
  C   3.53544554610350      0.80135427646987     -0.47304977349402
  C   4.82037274127741      0.01889692622385     -0.46411920318991
  O   5.87891478310077      0.53208176058650     -0.80068563096328
  C   4.74133671720142     -1.36770413125271     -0.02123875068909
  C   3.54335624423948     -1.92978097642367      0.34534629799527
  C   5.94064925636428     -2.13410730464726      0.02367237613937
  C   6.94828114707037     -2.78771573172864      0.06757860045377
  H   1.90577164785218      4.65804158434045     -0.88817242516438
  H   3.50718119097203     -2.96122097336590      0.66603434731029
  H   7.84791880942751     -3.35174404397519      0.10190341985196
