23
Coordinates from ORCA-job 19599optt
  Br  3.43467376002770     -1.07075281328580      3.48040526189832
  C   2.89867019552841     -2.48290607335966      2.29360976020154
  C   3.11653465056166     -2.35003735761936      0.87676178607606
  S   4.80223350318383     -2.15317409292233      0.40668281800783
  C   5.67704936175215     -3.32181225372542      1.43586683753020
  O   6.86095380604655     -3.45878698248343      1.29300917036179
  S   4.91376006570403     -4.26486175134558      2.77106967564857
  C   3.17460599739965     -3.84381771118141      2.75397120119370
  C   2.27136682281935     -4.82329161137245      2.91073398985870
  N   0.91663416201744     -4.53534177920937      2.76552572470493
  C   0.16765899865871     -5.35902078064146      2.15672425004267
  C   -1.09802014801720     -4.85299797457124      1.51813355731387
  N   -2.20762715043749     -4.62571655079979      2.09543717874281
  N   -0.89228298815088     -4.76053320539669      0.15231529627203
  C   0.07751590406480     -4.03730213768128     -0.34358629746811
  C   0.85909103119422     -3.08001137207884      0.33127191926935
  C   2.17767807277703     -2.81972716108256     -0.02693264636990
  H   2.59105946101433     -5.85908634557128      3.02650891973322
  H   0.52761087292667     -6.33403872827415      1.80421679653751
  H   -2.11011438247027     -4.83757085457831      3.08732467719732
  H   0.32595976029714     -4.24077708612972     -1.38827272207783
  H   0.52811516402593     -2.74661283582600      1.30503557203290
  H   2.51587307907610     -3.07882254086351     -1.02881272670759
