20
Coordinates from ORCA-job 19595optt
  Br  1.04127754153176      1.44499791778245      0.07603029599468
  C   2.82669772454579      0.83548095222610      0.12457943848118
  C   3.15418847322028     -0.52157742978931      0.03602748519736
  S   1.86181424807540     -1.64692027628567     -0.40169712638214
  C   2.26387126838855     -3.29016995397120      0.14493668177741
  O   1.42587590155661     -4.12929748135140      0.00515317142227
  O   3.41732768360666     -3.53509626087775      0.79593579784308
  C   4.66224845806647     -3.36182846391591      0.17764674829251
  C   5.17563849636695     -2.14095686819580     -0.02777214647611
  N   6.50628317023779     -1.84378392526271     -0.32362768347680
  C   6.76467025133004     -0.45083642835264     -0.14007682150069
  O   7.88491309898469      0.05307848926163     -0.21947210079488
  C   5.48688880344441      0.12058035970629      0.10158491451551
  N   5.14095711653027      1.44787620985210      0.17374748802145
  C   3.82660193814722      1.88930197585333      0.21236641354750
  O   3.58931871902236      3.08710779284169      0.29327403207872
  C   4.49714691602614     -0.87122034124982      0.09443443443862
  H   5.20008157946468     -4.28827681370537      0.04630503016911
  H   7.24454341137804     -2.49128938814791     -0.10058070704775
  H   5.85465520007573      2.16082993358195      0.16920465389898
