21
Coordinates from ORCA-job 19603optt
  Br  4.77611866850774     -1.86037529977236      2.03245456152096
  C   4.90286943284108     -0.73019776160600      0.51713934717504
  C   5.61686632402553      0.39094162143786      0.56141294318931
  S   5.70875036668559      1.40573794719343     -0.93098452562850
  C   6.37288086040955      0.05645387837499     -1.84916229562773
  S   5.23077088684714     -1.23882891245830     -2.20099260057660
  C   4.27410528507740     -1.33004623626774     -0.70436646245975
  O   3.23745567743555     -1.93833159044590     -0.69488767934619
  C   7.71070313089413     -0.11548374584658     -1.84005188453165
  N   8.33517921284106     -1.33386211679385     -1.89496071108795
  C   8.49417734911068     -1.83567601473803     -0.70780917137957
  N   8.06548869210422     -1.28977435524971      0.45470048516342
  C   8.46011434628427     -0.11929324425063      0.93708691896583
  C   9.78531077213612      0.42627533414213      0.72119809094861
  O   10.60954180425943     -0.01940231089187     -0.07247944481772
  N   7.70742398767573      0.65279328079705      1.82056024456039
  C   6.44529326568467      0.82072356751175      1.72134519956216
  H   8.32554328424699      0.76846175212619     -1.66340838478535
  H   8.89312672712230     -2.84777698163739     -0.65490794975431
  H   10.00384229948676      1.31584788791185      1.33758143217774
  H   5.94843762632394      1.41281330046308      2.48853188673187
