21
Coordinates from ORCA-job 19606optt
  Br  2.51370394532149     -0.11722790245867     -1.75073751691170
  C   2.87105362840396      0.37715841929506      0.03123073082590
  C   2.10225158285866      1.15047810387305      0.80505387359624
  S   2.76028834926578      1.28442056180149      2.44728372025791
  C   4.36301816016715      1.70260679846959      1.82297229449181
  S   5.05824148795838      3.29619706487661      2.27142952705605
  C   3.83239517097278      4.18757570487111      1.36320318582150
  C   2.62604806040622      4.38314712499436      1.91439165879632
  O   1.54814788974878      4.80989375223408      1.24384718935984
  C   0.35564759714145      4.17060259414281      1.78289142238982
  O   -0.35207646110887      4.83368095570063      2.51950141657123
  C   0.26689611015889      2.76525921911386      1.50275002340248
  N   -0.51371037838410      1.93166674218379      2.16281265079460
  C   1.09589210490488      2.17883342382159      0.41166733309129
  N   1.06348094324627      2.55923379253014     -0.80204571348165
  N   4.91403465824005      1.03565013992614      0.89695986703467
  O   4.07653084329551     -0.06607665947901      0.46014063722765
  H   4.00361165281736      4.33683114662753      0.30549398287119
  H   2.46096441939557      4.15654533393707      2.96463782735275
  H   -1.00833398429620      2.46497711351000      2.87948725109303
  H   0.36891421948586      3.30154657002861     -0.89197136164099
