19
Coordinates from ORCA-job 19609optt
  Br  6.71944445929374      2.10225938660441      1.38739390959641
  C   6.85657108055867      0.59370048195318      0.27288572773878
  C   5.89373407331813     -0.19325718675068     -0.18412228219119
  S   8.71352741114209     -1.21595814605845     -0.14761723867048
  N   3.66711678821363     -0.75582839260913     -3.15352183970438
  C   3.71414249879569     -1.88264355116586     -2.94273760814419
  C   5.82653596797002     -1.18664961900692     -0.94634859986355
  C   6.42303355729331     -2.18323975614420     -1.63002554967818
  C   7.90658281796226     -2.11379250914474     -1.42004942959161
  O   8.15593760832319      0.36671979613098     -0.16116126657489
  C   8.51953313482224     -3.11544864971122     -2.06535071970165
  C   7.46651307477560     -3.95551064698874     -2.72344029700347
  O   7.67470797432609     -4.95373509005643     -3.37053798181206
  C   6.13737456520326     -3.32670057303345     -2.41609685252505
  N   5.01985541776918     -3.92343636699467     -2.79395612716320
  C   3.80231070846390     -3.33930706237584     -2.74658073911616
  N   2.66759186025741     -3.93921297837447     -2.64985241257170
  H   9.57371865689981     -3.34709379046370     -2.08336412010829
  H   2.86576834461161     -4.93686534581003     -2.55551657291512
