20
Coordinates from ORCA-job 19608optt
  Br  1.01272356065169     -0.35965863767821     -0.28691174245409
  C   2.67677314290257     -0.80880978643463      0.46968801475459
  C   2.90093950213475     -1.93106385245056      1.20797518456134
  S   4.64556702306027     -2.03533458267155      1.68695621480508
  C   4.62393465282444     -0.39021891115208      2.30322208521912
  S   5.18681798910984      0.04539287640653      3.93712568907123
  C   3.58330023277558     -0.07275033194688      4.78898324971204
  O   3.38840781211378      0.57704848594260      5.77082871225832
  C   2.61972762347513     -1.14207419483887      4.27475241433372
  N   2.87747969407936     -2.36245359569304      4.52370963648158
  N   1.54420664068142     -0.66841523768385      3.59484490933298
  C   0.47120853752034     -1.39810391342799      2.89922375929513
  O   -0.62638866204750     -0.87176673235408      2.98180534339854
  N   0.79238234847923     -2.53667330285776      2.29439294034350
  C   2.01441534979498     -2.82284234499029      1.85004687204348
  N   4.12884342790789      0.59203671409038      1.65521543497853
  O   3.58254082009884      0.21310711260484      0.41248271953060
  H   3.78742448573420     -2.45272811839694      4.96967301163975
  H   1.28916587885903      0.29445983112495      3.75896929276132
  H   2.37052993984409     -3.83815147759253      2.00601625793314
