21
Coordinates from ORCA-job 19605opt
  Br  4.43572606034119     -3.15784757241706      1.77730666657069
  C   4.89026792031849     -1.63987954463228      0.72234920746832
  C   5.83228763184046     -0.80417497136252      1.18182452706981
  S   6.24707901980322      0.62592433020437      0.20441216820740
  C   6.12430848395548     -0.07188655541031     -1.40075017368989
  S   7.69704237683451     -0.41986224041674     -2.23855278303889
  C   8.07903395833889     -1.71969692708137     -1.12658911296631
  N   8.45001841584638     -1.53479700772531      0.11041944874198
  C   7.99691800984381     -2.63670682911885      0.76837932106686
  O   8.02571232449874     -2.67750472626038      2.13370810636155
  C   7.35785507605120     -1.68029073686656      2.79268387580854
  N   6.46297037717993     -0.88509078801917      2.42415224780635
  C   7.45021363808108     -3.51884634817496     -0.09242642903852
  O   7.50881536609910     -2.94050921591244     -1.32111216428823
  C   5.06728431451837     -0.94969474117088     -1.63710072302646
  C   4.26708690563443     -1.57464155589195     -0.62737240664707
  N   3.15593270650645     -2.22940227989853     -0.83022347867866
  H   7.71395171744985     -1.65052049943628      3.81744062414223
  H   6.95851618769931     -4.46816848099915      0.00718113584897
  H   4.91972669315362     -1.31780959601609     -2.64975075287613
  H   2.89525281600508     -2.12059371339344     -1.80997930484253
