20
Coordinates from ORCA-job 19611optt
  Br  1.42009178057060      0.53646808498813     -0.82784523620452
  C   3.10509335338909      0.15700846274389     -0.06647690253186
  C   3.98654811410614      1.19111268144233      0.19779584700469
  S   4.26768936865411      2.83743480963335     -0.37938960741349
  N   5.97134031445633      2.77556146368831     -0.23862918764942
  C   6.31990349756847      1.62850354674561      0.30449925542499
  C   7.48804936461935      0.70725091769824      0.16955076419029
  C   8.81441668167709      1.00013121468179     -0.26676280374448
  O   9.29939213551523      2.10627501875817     -0.44679970535929
  C   6.92547542651447     -0.60793663671750      0.34353030246004
  N   7.02900772595785     -1.89817241049218     -0.18150823478798
  C   5.81336152410386     -2.38337526642190     -0.17707977871007
  N   4.85147235216344     -1.51113142003100      0.37057028590174
  C   5.60338030938454     -0.45626501150914      0.75673979509268
  C   5.20958597984727      0.84473370626227      0.75147145449541
  C   3.46478542795232     -1.27115345801334      0.04652822600426
  N   2.64260956420044     -2.22095911158256     -0.19007466408336
  H   9.42562747627995      0.09378824872737     -0.45272552648537
  H   5.53930113609913     -3.36156055461813     -0.54017192645173
  H   3.09986846694030     -3.12271428598370     -0.08522235715255
