18
Coordinates from ORCA-job 19612optt
  Br  0.71414630039646     -0.57151656816851      0.07736369754680
  C   2.55761899366205     -0.18009338490678      0.08076836341789
  C   3.02848735902075      1.11043586463454      0.07957917496058
  S   2.46745575551716      2.77695281333585      0.07494816533554
  N   3.99503919453127      3.50788124490516      0.07639302527142
  C   4.88693171940453      2.55579721557517      0.08060308185498
  C   6.38476668066422      2.40054235570183      0.08418280575384
  O   7.27076826002981      3.19248183078479      0.08459005662925
  O   6.63511962504618      1.02031407194193      0.08752807516572
  C   5.42010614317348      0.33635242441621      0.08639653675398
  C   5.02051832351551     -1.00245101434745      0.08785148651982
  N   5.63537211531060     -2.16588690275218      0.09109129048729
  C   4.59123358054700     -3.09449344227430      0.09041953932524
  N   4.76716955664348     -4.37967034986138      0.09293795058335
  N   3.31622099517362     -2.52526272205076      0.08652727082340
  C   3.52960542707973     -1.23404768036110      0.08491880764128
  C   4.41596691053757      1.25305779617468      0.08245496823116
  H   5.77647305974656     -4.53339355274770      0.09544570369846
