25
Coordinates from ORCA-job 19627optt
  Br  1.06173043260962      0.18107255755306      0.58230826282678
  C   2.93693256848595      0.13663205321189      0.41542257952156
  C   3.55379882189339     -1.05422070216701      0.46785575739249
  S   2.96593818292519     -2.68466563764974      0.66036350779759
  N   4.50441513937928     -3.37723005834369      0.60595860723333
  C   5.38972449877152     -2.41893514466743      0.43905810374613
  C   6.85616653018458     -2.67496400398592      0.40852147005582
  C   7.56444389238198     -2.29213191582321      1.73107330093604
  C   8.91226506289807     -3.00094424763473      1.63120307883611
  C   8.61124364292101     -4.27104629548657      0.84333090209789
  O   9.35011162667909     -5.21346468258177      0.73153190612095
  C   7.22921928209411     -4.14530774828022      0.23243759006427
  N   4.93700367519739     -1.13437695570704      0.35940394414092
  C   5.64197350678244      0.06759212529110      0.21238322978838
  N   5.04588980483705      1.25832410209565      0.12165518584588
  C   3.70764320400508      1.40385312069729      0.22026355751422
  O   3.11435968814643      2.48215306263779      0.16135253707756
  H   7.30127232148597     -2.08271411601785     -0.40193636871372
  H   6.98116316056874     -2.70422589330880      2.55837618180442
  H   7.63434398225389     -1.21529041212539      1.87369096496819
  H   9.39700418046183     -3.23372804044542      2.57802699336564
  H   9.61798525894503     -2.41615709060778      1.03193780876127
  H   6.53976633517463     -4.76105001545986      0.81903995941474
  H   7.20679996437664     -4.51381888019660     -0.79107528734790
  H   6.71180523654098     -0.02435518099775      0.11081622675143
