20
Coordinates from ORCA-job 19626optt
  Br  0.84705689281452      0.06118917954537      0.11966648568718
  C   2.73478467186060      0.10716240732813     -0.04661029007591
  C   3.45251299518893     -1.05880155046493     -0.07211805637412
  S   2.58107724656564     -2.58302968270835     -0.02116245457201
  N   3.70220522101590     -3.78569072720493     -0.22354228884442
  C   4.96861482848432     -3.53975525854714     -0.27255802222022
  C   5.62388829430025     -2.27876693872704     -0.17365449418793
  C   4.88732487608272     -1.06272289781254     -0.16139268065382
  C   5.47198506260579      0.22276746196548     -0.31091507186846
  O   6.84682346975552      0.33466380629447     -0.54593832575678
  C   7.62570932281425     -0.18045533382638      0.45072244681894
  N   7.76138824464770     -1.39285004707300      0.72055879571544
  C   7.07522499567577     -2.38657365137439     -0.03725919045665
  O   7.71953938327860     -3.34214942845440     -0.42661338941408
  C   4.76893910101925      1.38574434874319     -0.30196096951773
  C   3.33249839334860      1.42498551530679     -0.14827118984888
  O   2.69259579586054      2.48172887395985     -0.12491665392042
  H   5.61679223648993     -4.40534679449874     -0.37171499579182
  H   8.17075698664414      0.58373831054929      1.00166322781362
  H   5.28528198154694      2.32716240699928     -0.43098288253193
