26
Coordinates from ORCA-job 19628optt
  Br  0.94550842471748     -0.07425830047333     -0.28686007076748
  C   2.81653021729996      0.02646235868835     -0.05964142666221
  C   3.52900639427335      1.15064126909681     -0.29424713077630
  S   3.07223701794797      2.74356808394826     -0.82265281552708
  N   4.63424120314260      3.35237615846417     -0.79942658211301
  C   5.47617550895239      2.40304589294929     -0.40417592811170
  C   6.95017707261666      2.67744872181097     -0.36491352401528
  C   7.66969658954689      2.20236819712568     -1.63979593143460
  N   8.89438828193104      2.99123351749407     -1.60301990500929
  C   8.73911466053725      4.17954351307151     -0.92564187726309
  N   9.55703519018881      5.15255896734013     -0.82951811493098
  C   7.37048559353760      4.14587708577843     -0.28592092580631
  C   4.94930343760976      1.12992425422442     -0.10094836215363
  C   5.58648368857043     -0.06076277864875      0.32245888875669
  C   4.84651571326396     -1.23720072401571      0.57604062015293
  O   5.26520352343451     -2.33745784961806      0.95767571360476
  N   3.44867835192960     -1.12648151399077      0.35892767208788
  H   7.38569690961771      2.13236764201116      0.47730800187431
  H   7.05611869515949      2.43541575018124     -2.51668914604950
  H   7.87593276721084      1.13255734942289     -1.62483460537955
  H   9.58975502725751      2.91823918166189     -2.32735214436015
  H   10.40706731789571      4.96791003789355     -1.36189234332110
  H   6.68913181320750      4.75326209854711     -0.88638258342017
  H   7.39005570702206      4.55521148772567      0.72088337883860
  H   6.65494287973482     -0.11533268689737      0.47630988498651
  H   2.92051801339401     -1.96451771379165      0.53630925679975
