23
Coordinates from ORCA-job 19629optt
  Br  1.05855654475160     -0.19100606540892      0.40835517143975
  C   2.87175430020688     -0.14739288980096     -0.11046113326340
  C   3.80982068842269     -0.92474083291855      0.55647726050677
  S   3.61069674782971     -2.03343947785897      1.85628528946565
  N   5.21798777348932     -2.42292319192851      2.00168800623918
  C   5.91059076431041     -1.74300586631624      1.09737138058301
  C   7.40938605717735     -1.84085902887961      1.03106586037660
  C   8.02201744814364     -2.85098479717914      2.01654354412623
  O   8.36515680433380     -3.97630658045465      1.20663841453445
  C   7.82317912018020     -3.72811765239871     -0.06874175239337
  O   7.85432815801573     -2.34259532610763     -0.23759016163739
  C   5.18676192020196     -0.88469837785551      0.23098524349637
  C   5.61126580869006     -0.04234773479689     -0.80499442426284
  N   4.62360173134191      0.68611577484058     -1.47506525402699
  C   3.26169640857660      0.71839537141306     -1.18176947236984
  O   2.52705088222206      1.45336915711850     -1.84366707251261
  H   7.84071678969258     -0.84117562959865      1.12603349696475
  H   7.30174708711072     -3.13432668859663      2.78159533218373
  H   8.93758485310166     -2.46961312365743      2.47042053606206
  H   6.78968996799775     -4.09666228987411     -0.11753559316953
  H   8.44868793066724     -4.19825488475803     -0.82629995305149
  H   6.60127740123701     -0.04910638083779     -1.22997483210618
  H   4.87844481229897      1.31567651585484     -2.21735988718492
