24
Coordinates from ORCA-job 19633optt
  Br  1.08941794084516     -0.05253245977904      0.36049596565191
  C   2.99208844524011     -0.09806815313209      0.20908784552636
  C   3.64329169109518     -1.30658589873185      0.17718138460514
  S   2.69413564314453     -2.79158759856090      0.28069470814562
  N   3.73696247323797     -4.07121639634232      0.20205022897219
  C   5.04045851253367     -3.86734399256522      0.06922560506774
  C   5.69630889742317     -2.63870825093728     -0.00575593538152
  C   5.05864631240731     -1.38483911524299      0.05009612777351
  C   5.84188017236070     -0.14585922710636     -0.03070986557631
  N   7.13855150931006     -0.04428536383387     -0.12084676431083
  C   5.07146282446303      1.07802876658601     -0.01333752293447
  C   3.71885576477078      1.11907840906934      0.10489997092225
  C   3.01335747130166      2.45809786157500      0.10914626290720
  C   2.51919135091599      2.85427916302750      1.42903446542939
  C   2.12990191456336      3.18475710270223      2.51317977853824
  C   5.84759959019423     -5.06247482299398      0.00239873164616
  C   6.54271048382074     -6.04060359007301     -0.05455500242497
  H   6.76959949929847     -2.67916379964857     -0.12040484953729
  H   7.58159488142326     -0.95805740426004     -0.11807353988100
  H   5.64021627537726      1.99689947986361     -0.08968151153030
  H   2.16818702158827      2.43998705246453     -0.58360349382778
  H   3.71286334190022      3.21730215894503     -0.24305364379657
  H   1.78040044942585      3.45631535624150      3.47908221163028
  H   7.14931753335894     -6.91141927726723     -0.10355115761494
