23
Coordinates from ORCA-job 19637optt
  Br  1.18655115434843     -0.73501956908311     -0.71104033616707
  C   2.85263504155832      0.01619188597907     -0.23380601345202
  C   3.04665207421653      1.36407525079755     -0.26893781178025
  S   1.79386845335320      2.51371490177078     -0.72803587190873
  N   1.67562182081034      3.53206067958887      0.60655836684284
  C   2.67699204548766      4.36253055339644      0.87182502786458
  C   2.35276641936349      5.39153092811189      1.82389928713120
  C   2.10777521236355      6.25916159572369      2.62047349991822
  C   3.99340035308477      4.43693911415564      0.30328016700657
  N   4.73867757062054      5.52012397068097      0.28804117681689
  C   4.69186241436572      3.24558517013784     -0.27433508028936
  N   5.79594850706177      3.33224546909413     -0.88521408518117
  N   4.27945520795030      1.89842764627266      0.06277074951897
  C   5.27972545100105      1.05298755435560      0.46694717019568
  C   5.12267647528338     -0.27739032861862      0.55225011632330
  C   3.88699337123623     -0.93450941144063      0.16847611080978
  N   3.67379676655202     -2.20369650639987      0.18258925406875
  H   1.87809089087512      7.01672306671302      3.32912485616308
  H   4.22418357138574      6.29746640847862      0.69520940850820
  H   6.02187467153657      4.32842388566450     -0.93790320377192
  H   6.20958596126942      1.54768178947671      0.70030056911464
  H   5.94653425505345     -0.88421502362853      0.90431759331706
  H   4.51233231122234     -2.68103903122723      0.50920904895073
