25
Coordinates from ORCA-job 19634optt
  Br  1.20038402152493     -0.16772867750632      0.16821458625791
  C   3.07914455712349      0.01185252402368      0.10493176994565
  C   3.70408107149431      1.20307887916832     -0.02505805578378
  S   3.11353421815655      2.83106990408089     -0.18488137963872
  N   4.63955062825205      3.52448727602999     -0.27046105806781
  C   5.56614982419902      2.57442548529334     -0.18362972093751
  C   7.01924388544898      2.95358552880109     -0.21269741584098
  C   7.22278066450785      4.44785497687947     -0.24154586831645
  C   6.85788406953728      5.23044463057250      1.02611025970149
  C   8.32601647629101      5.67055781331859      1.00647987673871
  O   8.62038809011150      4.81870531822396     -0.10777808591349
  C   5.13521590942777      1.23836497182906     -0.04788222311426
  C   5.87839229086725      0.04035602312825      0.06257525040044
  C   5.23201523892616     -1.20895355916151      0.19226774300218
  O   5.74422670387034     -2.33082170725174      0.29814617599186
  N   3.81346366179287     -1.15386942072708      0.19985805210869
  H   7.51057907306277      2.49976554032078     -1.08049576391881
  H   7.52133246839364      2.54453211394686      0.67161361676319
  H   6.79814299273509      4.87717987973654     -1.15111954015978
  H   6.58033251197380      4.58791513043016      1.85944984210852
  H   6.10692786905920      6.00469480442779      0.90068473070288
  H   8.92689582289187      5.41300923168287      1.88194230504819
  H   8.48993330389417      6.72384539255317      0.75855991210388
  H   6.95889685255702      0.03782186473870      0.04792838611805
  H   3.35248779390098     -2.04217392453942      0.30478660469996
