22
Coordinates from ORCA-job 19645optt
  Br  2.06102311863408      1.70025027171678      0.50273590089345
  C   3.46653169869068      0.61901678076261     -0.11457320500833
  C   3.37116213359581     -0.55121587019723     -0.79383387696291
  S   5.11954751879197      1.06866849131713      0.09086446708964
  N   5.71571805383166     -0.25527862840662     -0.70186254521370
  C   4.68514037480224     -1.05120938904098     -1.12545790661730
  C   4.92291425857299     -2.27709071531744     -1.80187356096572
  O   4.05083213768230     -3.06649350882652     -2.21852591051837
  C   2.08350575206495     -1.16697037021949     -1.15999252987258
  C   1.30693624717393     -1.79465028475687     -0.27082807535205
  C   0.00673862109171     -2.27853773081936     -0.69958622420319
  C   -0.78480603944511     -1.40874040943212     -1.33032039271165
  C   -1.50782575261697     -1.89145049709659     -2.51775636912902
  O   -2.40211335093760     -2.69189612187659     -2.57679365491170
  N   -0.91457720570349     -1.35735675884625     -3.68292680860128
  C   0.30494356274812     -1.00166866976166     -3.77484027273218
  S   1.85039404687570     -0.91788304648121     -2.92728350423514
  H   5.99510021545452     -2.50220230347092     -1.94138554238347
  H   1.70604296336915     -1.96192321037513      0.72306487845451
  H   -0.21576074291300     -3.34178443408307     -0.70871274596761
  H   -0.51403766022784     -0.35861988763811     -1.31450828133566
  H   0.60259004846417     -0.60896370715037     -4.75160383971569
