21
Coordinates from ORCA-job 19647optt
  Br  1.13828310031303     -0.17342432627739     -0.43867601688406
  C   3.02455395109501     -0.04172971943456     -0.19399146102156
  C   3.76159192872154     -1.22769138552716     -0.09890026838026
  S   2.86704817363369     -2.75231902699544     -0.22027551432668
  N   3.95415160871580     -3.98913401098451     -0.08283698942967
  C   5.24732293702056     -3.75252511406339      0.09540398066942
  C   5.84970256002724     -2.51188647920259      0.19026670705900
  O   7.20278092498985     -2.35020145967109      0.37507794137290
  C   7.95811391886888     -3.49859917842067      0.65577202404023
  C   9.32560867352141     -3.10080474431505      0.98481274684640
  C   10.45023249352106     -2.80198341045749      1.26355499981345
  C   5.13507501623900     -1.28441784003619      0.09417567837285
  S   6.09789621918088      0.15983740357148      0.23497772905614
  C   4.98322308512694      1.52401063882465      0.06770764330089
  O   5.46624841955564      2.62651119718798      0.12624736566989
  C   3.49039763354110      1.30097806843892     -0.13118415679509
  O   2.79145424062513      2.30405926656094     -0.22022012493553
  H   5.85461543726034     -4.64899244294412      0.16021109454820
  H   7.97488883530875     -4.17445890994985     -0.20750256537688
  H   7.52427852214818     -4.04435936750292      1.50190243851435
  H   11.44453232058584     -2.52086915880148      1.51347674788600
