22
Coordinates from ORCA-job 19648optt
  Br  1.30446977687771      0.19467919335431     -0.34474930792455
  C   3.18382384167321      0.17422606988644     -0.16816927161894
  C   3.83314521272938     -1.00068428616935      0.07401726958565
  S   2.92678746124135     -2.47899276094094      0.31580125259302
  N   4.00723519253960     -3.64751711788901      0.77772286546238
  C   5.28903058474407     -3.48762207255533      0.45753578003563
  C   5.95572594790580     -2.33414399495289      0.01939715815024
  O   7.09094085020854     -2.27949710268038     -0.45762808510891
  N   5.21040797839489     -1.04318107504029      0.19063579661292
  C   5.88922891842700      0.15508303084613      0.26604693965160
  C   5.26791382938765      1.34608898153181      0.05529737463899
  C   3.86499082671134      1.45508388031704     -0.25354397059615
  O   3.30086096044694      2.51886690429799     -0.50142705981535
  N   7.24798294929769      0.12899414412996      0.58779315792341
  C   7.70535374198254      0.89021749382440      1.72768724617067
  C   7.70454233858761     -0.60007315044439      1.73625654582031
  H   5.91634779426106     -4.37285444998876      0.51019461123200
  H   5.84098271733454      2.25860286587591      0.13918297385603
  H   6.95186355017248      1.39500592418129      2.32312320943255
  H   8.62993236809736      1.43411643495591      1.58199149211642
  H   6.94966899895909     -1.08934698597139      2.34350068916708
  H   8.61476416002008     -1.16405192656845      1.58633333261498
