21
Coordinates from ORCA-job 19654optt
  Br  5.84812600246934     -4.28512943976172      1.50123308439640
  C   6.03651536594403     -2.70501934157420      2.53448087181788
  C   5.78703875513209     -2.62670083415105      3.85832327275331
  S   5.82822617663367     -0.97195706128923      4.48720068225332
  N   7.31577553364269     -0.44835103576328      3.80706133970641
  C   7.53938812434998     -0.83592115290975      2.61522349547415
  N   6.59451274696622     -1.63904918695936      1.88842381799428
  C   8.86169715935674     -0.63393611615613      1.94606326945532
  O   9.30066566195279      0.51323554080297      1.68414692292322
  C   9.66852168919135     -1.84058668090261      1.77848848168086
  N   10.86727780082629     -1.85112756658898      1.30739503267498
  N   9.09439972502976     -3.09530623523862      2.17561411638529
  C   8.79291871873952     -3.26675059269655      3.37184566341798
  O   8.20873014110794     -4.46772745496886      3.73988475772167
  C   7.49260252977295     -4.57955266047189      4.89610312923444
  N   7.89373013921839     -5.21786542594936      5.90170258052131
  S   5.79079338674994     -4.00981339587779      4.92760976069218
  H   6.86847601934980     -1.80055094930191      0.92900454012514
  H   11.08620194904538     -0.88155408914075      1.07003304893156
  H   8.94094107962638     -2.57215849893127      4.20174695421384
  H   8.82846129489463     -5.58617782216963      5.72241517762644
