23
Coordinates from ORCA-job 19659optt
  Br  1.62900695953945     -0.02414397528479      1.98631893559180
  C   3.08733955131615      0.08827367468801      0.78289026710001
  C   3.92094684350848      1.17317177166977      0.88209616188300
  S   3.89289855787314      2.60737269208533      1.88388351185027
  N   5.30436603010651      3.23614856563761      1.16126007993009
  C   5.71605191678815      2.41450623054668      0.25309214695078
  N   5.02290236103801      1.27560142929425      0.02608158843641
  C   5.28037729807839      0.25561024046736     -0.99431339693457
  N   6.28336079572235      0.36565707786540     -1.79724591431184
  N   4.41568201416769     -0.75811129531810     -1.02923174208611
  C   3.36059147335935     -0.86887537257938     -0.18508531691800
  C   2.56701057421403     -2.15397202016569     -0.32786630682079
  N   2.65139111190001     -2.57508933483251     -1.71362700279928
  C   1.79989421084706     -3.44146490780942     -2.27310109244610
  O   0.85026292227133     -3.96358039223200     -1.72146859740298
  C   3.08942819832487     -3.19396685187184      0.58056694850424
  C   3.53348804090128     -4.01587015362243      1.33171176581871
  H   6.60304924924477      2.63021193240590     -0.32464321373382
  H   6.82690265989193      1.19970446686609     -1.62102913420313
  H   1.51737756528601     -1.98963624368850     -0.07747059767029
  H   3.45670796953221     -2.19805862631522     -2.20345751086406
  H   2.04116851624489     -3.64160704553704     -3.33127923395665
  H   3.92879517984384     -4.74388186226948      1.99691765408229
