21
Coordinates from ORCA-job 19653optt
  Br  4.18998864700230      2.19198849825990      0.74727184583900
  C   5.23924583206745      1.50569231931953     -0.62489290265818
  C   5.06028694764298      1.48731816280466     -1.98129401889538
  S   3.97733313438505      2.47014347671986     -2.94389966396913
  N   6.16147233286907      0.95097210988323     -2.56925179617890
  C   7.06459912713693      0.79950366728125     -1.62810803064210
  N   6.50719691734390      1.02270224309652     -0.40055958755603
  C   8.48088061246819      1.09241508400946     -1.88445052016540
  C   8.71997907666584      1.54283352994474     -3.12081699765938
  N   9.47679978060845      2.69379079713290     -3.41467246401142
  C   8.69898776311767      3.70580481108460     -3.45002400134281
  C   7.19919032619853      3.66871484169844     -3.09385496926462
  O   6.91353008292918      3.84694046426555     -1.90262818780431
  N   6.41672007488832      3.45106818544712     -4.15036099809527
  C   5.11616105876762      3.13701411116938     -4.16850942067284
  C   4.44191892016665      3.25761196710996     -5.40780223127653
  N   3.85618335664655      3.37073267656392     -6.39977077647302
  H   7.00397735272392      1.12019690734663      0.46859091746673
  H   9.05793103626182      1.46683945590649     -1.04706184247843
  H   8.07361271204954      1.21382300269696     -3.92885029090846
  H   9.14000490805990      4.67489368825885     -3.68605406325347
