18
Coordinates from ORCA-job 19662optt
  Br  1.08014432788573      0.12398450757457     -0.01076949941403
  C   2.95532977971129      0.02327766975658     -0.00079796094044
  C   3.67905042083922      1.16205552481483      0.00150124826514
  S   3.22635414277929      2.83921004293858     -0.00097361452614
  N   4.82219402888514      3.38494339857942      0.00510667823193
  C   5.60605747585086      2.36032842509388      0.00845510230832
  N   5.05131166376164      1.11623309126605      0.00689382862189
  N   5.80772856290164     -0.01347274688529      0.00928824232051
  C   5.08760642828096     -1.18114304708411      0.01025544364093
  C   5.90376936051999     -2.35496343308078      0.01494766668371
  N   7.22728960152902     -2.40321318279616      0.01671193048158
  C   7.45746425429560     -3.73566425129535      0.02107787493912
  N   6.40732645058623     -4.49923970901148      0.02213937400049
  O   5.36095313607870     -3.58794450073334      0.01814906166797
  C   3.63140299556597     -1.28293126051177      0.00564984843066
  O   2.99410636958546     -2.32911458371745      0.00667715300996
  H   6.68547010277533      2.42416512403489      0.01216102382628
  H   8.44744089816787     -4.16751106894309      0.02352659845212
