25
Coordinates from ORCA-job 19664optt
  Br  1.64270833108241      0.60902713309191     -1.17676612991036
  C   3.26158607840643      0.19948161574910     -0.29806316696253
  C   3.82442153682508     -1.02960817507166     -0.50603420497657
  S   3.29483553115540     -2.37878485100651     -1.46833340740214
  N   4.67634380707655     -3.28617742829583     -1.22310399951627
  C   5.38561824705036     -2.76906832709815     -0.17760607523107
  N   6.78485161169477     -2.95161015054136     -0.24875972141301
  C   7.54586144885584     -2.62754961237343     -1.45419533753619
  C   8.87294309091345     -3.32048371748282     -1.17150606015693
  N   8.93048422876395     -3.23721268809144      0.28590863428043
  C   7.61559240539447     -3.24782657867405      0.79670406021856
  N   7.25734172881003     -3.44380214231969      2.00659909908145
  N   4.98482978781020     -1.38631936155525      0.09796742512587
  C   5.59594510855819     -0.52735793563810      0.95158353071088
  C   5.09262971422790      0.71099193800669      1.18381284905378
  C   3.86909890991138      1.19364390717311      0.55990786647654
  O   3.41121607839339      2.32395105035482      0.75472858527839
  H   7.67443302836056     -1.54355030981895     -1.55634205973731
  H   7.02528579660193     -3.01118105806247     -2.32897461564492
  H   9.72239481716410     -2.81654659376292     -1.63142222826109
  H   8.83777660946821     -4.35835216560671     -1.52020327932440
  H   9.54903314844356     -3.87978211737936      0.75624293013990
  H   8.07090673866852     -3.64839551177915      2.57967180701779
  H   6.48387408348770     -0.91618594311441      1.43272869802599
  H   5.59698813287550      1.38069902329668      1.86645480066321
