18
Coordinates from ORCA-job 19667optt
  Br  0.86265996718958      0.06606094872941      0.06915813314887
  C   2.76242331890390     -0.05299834210721      0.06067644648171
  C   3.40173284094908     -1.23679869118425      0.05548902452120
  S   2.41283846072666     -2.71217116935378      0.05598332000824
  N   3.27731488025937     -4.09214533778227      0.04980041194996
  C   4.54087789481523     -4.39995648769310      0.04381754057737
  N   5.68477828919925     -3.70531968046134      0.04127788719527
  C   5.77140769172700     -2.37231694832822      0.04448745247320
  C   7.05948970355694     -1.73421846962549      0.04215597568016
  N   6.99301086450261     -0.42322957107938      0.04597993740786
  C   5.64612571027718     -0.13285275749278      0.05083223762381
  C   4.84396079897111     -1.27269704887064      0.05038766576670
  C   5.21670216831365      1.24751165521352      0.05544627212115
  N   5.95208524969482      2.28823157757175      0.05589198875208
  S   3.46784338672793      1.54209295607702      0.06112917584130
  H   4.69963847635147     -5.47816175047407      0.04026498901988
  H   7.99805369256475     -2.27345496299679      0.03801838959531
  H   6.92405660526942      1.97342407985763      0.05220315183592
