22
Coordinates from ORCA-job 19663optt
  Br  0.71277964209243     -0.64635034570765     -0.62257137030608
  C   3.08034670243220     -0.02318122664906     -0.26279126241564
  C   3.76906546082900     -1.09419445542460      0.08910897856891
  S   3.08521662648165     -2.70208717388239      0.36503985276278
  N   4.58099887450273     -3.36979932381617      0.78781885086634
  C   5.50730847002719     -2.50171768236886      0.73399072554976
  N   6.84491116566463     -2.79672843829760      1.04009996642701
  C   7.21531945052831     -4.19347773889844      1.01072095533701
  C   7.65898302295522     -3.28365200973328     -0.07294137027706
  N   5.16808493363813     -1.20347319719503      0.34883669207434
  C   6.05794664490037     -0.12605652644672      0.12779767710612
  N   7.27572153986873     -0.04430587186012      0.47499917968317
  N   5.48659090516664      0.89351320696138     -0.61785553366835
  S   3.90092834305966      1.44395836660763     -0.31192625793645
  O   3.90765738125000      2.08098599063868      0.97894165302764
  O   3.58648107291899      2.26169320481248     -1.44628467729826
  H   6.42518506233168     -4.89741620105001      0.78722794185972
  H   7.91424666519705     -4.48152845026574      1.78399087563849
  H   7.15899409946101     -3.37756515146475     -1.02956041012001
  H   8.67102581815693     -2.90273528372778     -0.10236202789908
  H   7.57636303802124     -0.87094662245478      0.97582979251032
  H   6.13884508051606      1.66306493022286     -0.72711023149066
