20
Coordinates from ORCA-job 19674optt
  Br  1.60332892644750     -2.20770296374114     -0.84713498306982
  C   3.38088302172904     -1.53554050491588     -0.99228141197577
  C   4.17673763671928     -1.84246879508871     -2.01629909378499
  S   5.84127665480629     -1.28610419579662     -1.80667352957085
  N   6.07628745194049     -1.72346288287022     -0.19205408117332
  C   5.03066616482193     -1.72098499788061      0.55526053501325
  O   3.87694740245887     -0.96564941476161      0.12192160318311
  N   4.86521779515578     -2.36787343900193      1.70439259255850
  C   5.48246939049282     -3.56519339156798      1.81155120506996
  C   5.90527451371710     -3.99654712490981      3.10551921048895
  N   6.23743406878400     -4.34788618873156      4.15135915128356
  C   5.65514940239233     -4.53154224666266      0.72025749987537
  O   6.41011128321195     -5.49266420964386      0.78272677671599
  C   4.78157486749700     -4.28741794210407     -0.47303589465758
  C   5.16735460512575     -4.41977152502336     -1.73851619678126
  C   4.34819123104079     -3.94443095338414     -2.88265353887198
  N   3.87293864441391     -2.77059359981625     -3.04032403677751
  H   3.79483163253532     -3.89761494178920     -0.25071141916202
  H   6.14843383733260     -4.82991644591104     -1.96263274697742
  H   4.15889146937714     -4.64863423639929     -3.69367164138617
