19
Coordinates from ORCA-job 19678optt
  Br  0.94925647501572      0.85960204500543     -0.46063191410415
  C   2.71772797209854      0.44682086417358      0.07285655628348
  C   3.72327235943556      0.29058582287872     -0.79771353413459
  S   5.29356074868322     -0.26598063975588     -0.20424085291480
  N   4.90649799603849     -1.59002747097158      0.76116096462468
  C   3.81774828961732     -1.54516278368046      1.38518471920955
  O   3.20713042299585     -2.63894418494609      1.85771223170994
  C   3.19493629210888     -3.80761957475535      1.06943698744754
  N   3.34499498473863     -4.91195462252227      1.63964209262349
  C   2.84994467512755     -3.70081002764179     -0.42601958731572
  O   2.59865759656685     -4.75297105491261     -0.99655961077989
  N   2.88541731006373     -2.44981848626087     -0.95187720280268
  C   2.64665457282921     -2.36544419353071     -2.25422503431337
  C   2.82310621525691     -1.22153034531001     -3.09445350068021
  O   2.57100995938262     -1.20252413703487     -4.28784502955372
  S   3.52861913092490      0.40111176896067     -2.53935711582509
  S   2.90767965227720     -0.02062556547660      1.73988720836137
  H   3.55155911604921     -4.76710120102770      2.62717070423212
  H   2.33022623078957     -3.24360621319156     -2.81612808206795
