19
Coordinates from ORCA-job 19672optt
  Br  2.00430447674023     -0.24061510148788      0.25545684200635
  C   3.13284926405151     -1.63845598418416     -0.42160234191232
  C   3.25739286420479     -1.80918752824292     -1.84411164142541
  S   4.38233236284713     -0.58745461226850     -2.38971780511343
  N   5.71781664305618     -0.87807570728708     -1.33283956266006
  C   5.48587628656564     -1.51318838278264     -0.26629694052780
  O   4.28608688602663     -1.75461288412681      0.34943221371698
  C   6.57516991475251     -2.26412623402219      0.43688116463552
  N   7.64923894097694     -1.85265392786059      0.91900820124569
  O   6.22359682949832     -3.60632399848611      0.50900491486693
  C   6.57744218907084     -4.39213941627259     -0.55025347392589
  O   7.52007289636452     -4.19926341827596     -1.24174379242136
  C   5.61438982636709     -5.60595809476657     -0.74220361069568
  O   6.08311837838586     -6.64813634364140     -1.11214239476696
  N   4.30151936650106     -5.39708325329985     -0.38507773108997
  C   3.62387516098347     -4.40476414136043     -0.81864298040544
  S   4.04729068669056     -3.43375694027360     -2.18270387282310
  H   7.70670862638580     -0.84334847369163      0.78791078971073
  H   2.68891840053087     -4.14985555766907     -0.32235797841476
