20
Coordinates from ORCA-job 19675optt
  Br  1.37642801369853     -2.13020777005400      1.72670791964115
  C   2.80008568429075     -1.39865987694948      0.65595311644026
  C   2.57880274840620     -1.00220921223379     -0.65867229646852
  S   3.74425483400183      0.20927949727442     -1.22331117198194
  N   5.19406301886400     -0.71162951173313     -0.95095054643571
  C   5.12625291818825     -1.42876648789208      0.07990165734483
  O   5.94240736901444     -2.59236585807422      0.13168738501937
  C   5.04995141847740     -3.61544963125288     -0.02058269412907
  N   5.02302125294706     -4.63537562207442      0.78052178335443
  S   3.53627937819698     -5.35807375763629      0.57404215640438
  C   3.05277430747452     -4.16474922920940     -0.61155484587694
  N   1.79836616851790     -3.94890487642714     -1.07181049467420
  C   1.35021309381589     -2.74905039060145     -1.71247239765650
  N   1.73575974562681     -1.53703788723743     -1.59467258677505
  N   4.05052143155033     -3.40045445757463     -0.91887571005884
  C   4.10547459737509     -1.39662641380261      1.19921688038661
  N   4.43911611413617     -1.54043497767935      2.44773066193603
  H   1.08785737609452     -4.61476816260251     -0.81175280693184
  H   0.58298349107674     -2.97003682319797     -2.44894965325283
  H   5.44638703824651     -1.67347855104160      2.51984364371438
