20
Coordinates from ORCA-job 19683optt
  Br  4.49633004010180      0.49639560654356     -2.60521171024076
  C   5.22556069033634      1.39902432847550     -1.10909316235979
  C   4.50930003082377      2.40203840479076     -0.48779258389742
  S   5.48365142765478      3.51580336285949      0.48568285888250
  N   7.10466533796549      3.02436370371728      0.24081751511069
  N   7.39296550508681      1.88125805932194     -0.12452884118500
  C   6.40207330179146      0.91489031338295     -0.46059463415165
  C   6.68577934844769     -0.36879042384353     -0.07273120214743
  S   5.58740979252242     -1.74600939309356     -0.13604417035263
  C   3.95806185232381     -1.10887237880066      0.03510745394265
  N   3.65817646358865      0.02270935966631      0.50167643173202
  C   2.32801129712832      0.47494146565348      0.19490274292025
  O   1.33377192509682     -0.22927034189893      0.38192927104346
  C   2.25668924421755      1.80293405880157     -0.35195463589208
  N   3.22552276046979      2.71596271861593     -0.49485787193885
  C   7.96416235687715     -0.72304060229259      0.43990936233884
  C   9.02704381925199     -1.09534825211398      0.86229543975289
  H   3.22830868216853     -1.78017560624462     -0.42888490357126
  H   1.24635680551375      2.13078209348140     -0.56977537373243
  H   9.97115931863302     -1.39959647702231      1.24214801374600
