22
Coordinates from ORCA-job 19680optt
  Br  1.02480879305632     -0.01024272438394      0.40953521657643
  C   2.89678737033348      0.08312093419528      0.20872054098034
  C   3.57084231671193     -1.07477360977168      0.11001061333506
  S   2.97440619709938     -2.72111752393653      0.13461840276127
  N   4.49371014229465     -3.39528563176733     -0.16501713863858
  C   5.35697770742253     -2.42616841061956     -0.19452594289799
  O   6.66889003116705     -2.65674750488624     -0.52280864610692
  C   7.40464313385509     -3.49340995480355      0.24736341334636
  O   7.06492058498952     -4.02359724264624      1.25285870733336
  N   4.96249219119923     -1.13247022059364     -0.04874474405698
  C   5.67392442880995      0.08939351123814     -0.07176554035533
  C   7.17331186642366      0.08139080382300     -0.10028466626180
  C   7.78116894334671     -0.54062408201008      1.08341068603020
  C   8.22742159440198     -1.09045101483477      2.05186027948466
  C   4.95847477530886      1.28012083424805      0.05023394699967
  C   3.55571264665645      1.40462091598027      0.17490519046223
  O   2.91140170961167      2.47328153402519      0.25222715830524
  H   8.38804285510004     -3.60029575002820     -0.22478983606930
  H   7.48549940369041      1.12555071395612     -0.14205207503557
  H   7.58361009740161     -0.40656711959425     -0.99059434823229
  H   8.59316924013156     -1.59715049990264      2.91200215829130
  H   5.52478397098775      2.20342204231262      0.04783662374862
