21
Coordinates from ORCA-job 19687optt
  Br  0.87080991677056      0.08513539291714     -0.00699087180759
  C   2.76124068872836     -0.09819556007970      0.02801989428616
  C   3.52758069740141      1.04846614519216     -0.05379644512638
  S   3.00138155269803      2.66750247365316     -0.20514787329718
  N   4.57947176565618      3.30150051969038     -0.22021346425047
  N   5.45221169678609      2.36832936572076     -0.11925639921662
  C   4.95183376771129      1.10389733556452     -0.01222068008665
  C   5.75698934117292     -0.02640009471673      0.15262931362166
  S   5.06129394330987     -1.61971936427479      0.04407048273522
  C   3.27436971800465     -1.42435415976777      0.11453946897775
  N   2.55606164182031     -2.48568129087726      0.19536991810530
  C   7.24051279443856      0.04192468659200      0.11794735809175
  C   7.94710685592033      1.12085148192206      0.95433667356485
  O   8.88309241821644      0.14990512252291      1.47354654213258
  C   8.05874400431775     -0.92292741833399      0.99499668639459
  H   3.13499726328265     -3.31935985090726      0.25558363090042
  H   7.62934392463744      0.04587545043043     -0.90798949009483
  H   7.31183488529469      1.52714227978414      1.74367407827383
  H   8.44015866707649      1.93018988531977      0.41872096641060
  H   7.46716809472557     -1.36413243946754      1.80290052926940
  H   8.64079636203032     -1.69794996088439      0.49327968111561
