20
Coordinates from ORCA-job 19689optt
  Br  1.14980923006004     -0.18063637594772      0.32981884143398
  C   2.99384764981677      0.05201242973180      0.05125257064610
  C   3.65631917734751      1.20244056827867      0.17454874360629
  S   2.93617080429973      2.73693562010102      0.61179839277810
  N   4.03933216462028      3.91219036702818     -0.01604113656324
  N   5.31483998015251      3.62177711509878     -0.09088156293528
  C   5.78222327954684      2.36919981475191     -0.02456560997044
  C   5.08342488260380      1.18976504406184      0.03334348443567
  N   5.78107377217339     -0.07889289594273      0.05745144036095
  C   5.06606382126114     -1.26272736776467     -0.11029459680260
  O   5.57006821606270     -2.37058364493979     -0.18734189621102
  N   3.70815700747420     -1.13093363416559     -0.20805397696209
  C   7.19146774970283     -0.12511997650612      0.22094238044880
  N   7.90931577773315     -1.14032828957027      0.43191188832934
  C   7.93999403573751      1.20379165653501      0.08189354613966
  O   9.15012430314431      1.24214064093245      0.09560642775594
  N   7.17703626299426      2.30597031239874     -0.07420659556370
  H   3.21875275430003     -2.00427866032227     -0.30707636962223
  H   7.34485577724091     -1.98393936291444      0.46828329546352
  H   7.65112335372801      3.19521663915520     -0.15638926676773
