21
Coordinates from ORCA-job 19681optt
  Br  2.30348022662386     -2.03179448974615      1.50075513904290
  C   3.56787206038525     -0.72133630112000      0.97469128894590
  C   3.84284183678022      0.33062340447334      1.75675772457315
  S   5.37947457776191      1.08903631826802      1.39805295553510
  N   6.27264564681632     -0.26169950860206      0.68963771785911
  N   5.63899648358521     -0.92994806750577     -0.21420247335710
  C   4.28326827373070     -0.90050266811795     -0.29627115017395
  C   3.63993827717067     -0.95854409255455     -1.52921480771650
  C   2.31352771494310     -0.50847173926156     -1.86766144152899
  O   1.88550937443017     -0.45297185643844     -3.01202320194755
  N   1.45317376757303     -0.13180933034720     -0.78529815831332
  C   1.76132885009224      0.81106112727685     -0.03660100614390
  O   1.02117408875244      1.02100391114630      1.11368953234867
  C   1.66207202789651      1.33353633436875      2.28278336632045
  C   2.91497866323607      0.99721424589700      2.65640184666484
  C   0.80728596105139      2.06318629077121      3.17192606053308
  C   0.09057192532512      2.67827506185333      3.91092911376184
  H   4.26458217159297     -1.16584380066753     -2.38896935114960
  H   2.57713632812874      1.52541506777602     -0.17342815057165
  H   3.26243456136940      1.39078740796496      3.60314976145957
  H   -0.54629281724537      3.22278268456542      4.56489523385793
