19
Coordinates from ORCA-job 19690optt
  Br  1.09638334040598     -0.33941775703775     -0.34628787023260
  C   2.96448595261065     -0.12717636616263     -0.22026405243173
  C   3.56423635847407      1.05378376546667     -0.01720239074213
  S   2.69621583223477      2.54293139770486      0.27013883074156
  N   3.85288727667982      3.80510189615997     -0.02513024760807
  N   5.11332990930244      3.56028479950921     -0.05650463435790
  C   5.68982021032254      2.35165516541190     -0.00285710306017
  N   7.05523953792247      2.37401302563928      0.01641231731837
  C   7.71865739178320      1.27613759399529     -0.08761030672707
  Br  9.63707513581313      1.50421355588894     -0.07982934195884
  C   7.17162275343709     -0.00942877335315     -0.18040814736219
  Br  8.26487629343540     -1.47146528167551     -0.69453703292817
  C   5.75832681200763     -0.09734049331235     -0.09214416709149
  C   5.02759001678703     -1.38664830072955      0.01964142158218
  N   5.43872780222252     -2.53162743744878      0.40221752400348
  N   3.68299658584323     -1.29843138394627     -0.31954536924610
  C   5.01407748285198      1.08070541821089     -0.01901745066910
  H   6.43382829701935     -2.53392117736826      0.58199353758078
  H   3.18862301084665     -2.17236964695276     -0.21606551681082
