19
Coordinates from ORCA-job 19691optt
  Br  4.56450904105884     -0.37064102105934      2.17569870589027
  C   3.32644309206526     -0.12891778184235      0.77484153655175
  C   2.15882196462533      0.55486069704728      0.89170436039858
  S   1.54110233272024      1.10390264386962      2.42219502947045
  N   1.47557888465899      2.93751006858450      2.20872656072974
  N   0.74435119391543      3.40005017910527      1.35270795870189
  C   -0.05796562567377      2.73353920857434      0.42207231380736
  N   -1.13880241345389      3.35738199933475      0.02792611281051
  C   -1.69053364041945      2.58146877592879     -1.00054720021384
  O   -2.74955708736955      2.83685806879292     -1.57257715604961
  C   -0.79323660086210      1.45972433805989     -1.27104765744301
  C   0.22777170306151      1.52288573565690     -0.35926296032565
  C   1.38486417005441      0.66144407866280     -0.33479632895907
  N   1.68536826291717      0.00299126833062     -1.43378647243188
  C   2.79378275975635     -0.78136452814067     -1.50230495403384
  O   3.12125445022546     -1.48092884470151     -2.43891076944760
  N   3.65640853504615     -0.73857084740947     -0.38134276371323
  H   -0.91884395675203      0.72664716699194     -2.05131982243467
  H   4.50268293442562     -1.28184120578631     -0.45597649330815
