18
Coordinates from ORCA-job 19701optt
  Br  1.05247097438228      0.15344690190952     -0.97423821564718
  C   2.90525903948250      0.39596181743986     -0.71677991948649
  C   3.76421129650158     -0.54466618664484     -1.10323373024975
  S   3.54322694690463     -2.01205592535455     -2.00309638830293
  N   5.26640014230923     -2.10954543011601     -2.27648341643486
  N   5.89809354425187     -1.25230805806771     -1.65059872546276
  N   5.15166181573142     -0.40586458717204     -0.91712805773295
  C   5.69234285972999      0.34664739627908      0.15952440388160
  C   4.96703149623881      1.43728089077063      0.61038677091823
  S   3.42279404443537      1.94612385770342     -0.06883129239864
  C   5.43213474155345      2.24694536499573      1.69618453990665
  O   4.86882632086069      3.25563044189961      2.11761663500036
  N   6.63450210920458      1.83395584413900      2.25591158986287
  C   7.38260439784810      0.71221076211897      1.95140891153490
  O   8.39153712716947      0.45659851752965      2.57637858496707
  C   6.86306005652624     -0.14990067947488      0.82818132086100
  O   7.43740756863754     -1.21008170808057      0.56097943196094
  H   6.98543551823219      2.40762078012514      3.01081755682192
