22
Coordinates from ORCA-job 19705optt
  Br  1.26051686559374      0.55185342793523      0.87087916308617
  C   3.04983124956819      0.16164115229382      0.38809553759448
  C   3.88611255020629      1.20200893524702      0.07748400919105
  S   3.65029745413503      2.92110475178741      0.01291089111264
  N   5.31726334614954      3.14198285870977     -0.46934143858675
  N   5.93429604732038      2.02364066280396     -0.55859651177118
  N   5.20781054865635      0.96663771986139     -0.27543186829446
  C   5.78798819683892     -0.36762655076175     -0.35662444470122
  O   6.95925445756376     -0.50400998928229     -0.67967399733016
  C   4.84804379288827     -1.36103349646607     -0.01839307181808
  O   5.29109867215503     -2.67792436194899     -0.14253937884628
  C   6.15305449199225     -3.13958522728629      0.78614557469346
  N   6.52090621566301     -2.62779905095071      1.87633749225385
  N   6.63280736272242     -4.39447818918438      0.42459063883263
  C   6.38891237780923     -5.07196614912754     -0.74257604774027
  N   6.84500817622436     -6.21246903567559     -1.06984595506347
  C   3.51770982237961     -1.14824041552567      0.35181719401739
  H   6.10842464569461     -1.70649473674170      1.99841170624906
  H   7.27302334517164     -4.78552979577889      1.09844716256919
  H   5.73292388301685     -4.53576161063220     -1.42006016422318
  H   7.44783088725326     -6.59353711869647     -0.33899349665149
  H   2.88188561099718     -1.98741378058006      0.59195700542660
