22
Coordinates from ORCA-job 19702opt
  Br  1.21968603027590     -0.45170178976008      0.50507988926638
  C   3.03306368118271     -0.20500834093670      0.06813376359779
  C   3.66656837129750      0.91506451741824      0.48364533936725
  S   3.17752678250450      2.26394307561008      1.43787218486619
  N   4.69127958818091      3.06012637165343      1.22305465965446
  N   5.61326174539321      2.23497266161553      0.73767010156291
  N   4.99144635452991      1.10565689426001      0.16745424239908
  C   5.63177025263914      0.17628489386104     -0.57096923776918
  C   7.09083124689345      0.47076528027363     -0.85368300990564
  N   7.55720448637838     -0.15097057728795     -2.07926879223409
  C   7.68502042181710     -1.38659728271765     -2.07457454924090
  O   8.03641980450468     -1.99572879334593     -3.27428405577260
  C   8.49651576494393     -3.25142784860988     -3.23649393139891
  O   8.75773075387512     -3.88606065005010     -2.25977029139784
  N   5.08165267605038     -0.92297313683285     -0.98159787818693
  C   3.74620584120206     -1.21881740726598     -0.69532704222672
  N   3.17731062936139     -2.30567048107591     -1.07811119316928
  H   7.66570725124385      0.13996758355855      0.02008678881161
  H   7.21691761543322      1.54789792670399     -0.92125169129125
  H   7.53502075213897     -2.08364657506704     -1.25513557506624
  H   8.61160585154929     -3.61929429572204     -4.26324063581415
  H   3.86325409860387     -2.84878202628234     -1.59828908605185
