21
Coordinates from ORCA-job 19708optt
  Br  0.74591561647872      0.73847134115039      2.36291543860297
  C   2.24212894608082      0.40104191283374      1.22736042259695
  C   2.39835607031988     -0.84800822677480      0.63575183559525
  S   1.26766872990867     -2.09561394667483      1.12215432247831
  N   2.01264080044103     -3.34638426058172      0.29351723358875
  N   1.83999592055195     -3.22092493583403     -1.03060979308045
  N   3.03544364081851     -2.93460961663086     -1.55443341075648
  N   3.84368929952633     -2.04416809123492     -1.13638192140538
  C   3.55619489177610     -1.08302353878157     -0.22571698289516
  C   4.57453679556153     -0.04958146284170     -0.25086619908244
  N   5.74945372606163     -0.12232413525655     -0.87542355650281
  C   6.37258403500591      1.09435758962018     -0.70217014205927
  N   7.51873091030019      1.47800235277139     -1.11093510965456
  C   5.48115825435083      2.02983584684531      0.10715342820622
  N   5.71519067196383      3.22786907843307      0.44400154126521
  C   4.31323446071881      1.20281982403717      0.39054225580710
  C   3.17310557286086      1.43716629867399      1.09452738082402
  H   3.29200216467844     -3.36934505851491     -2.43364343249323
  H   7.95574927094092      0.71193189304957     -1.62310974214583
  H   6.63692229996316      3.47558760063977      0.07060329615335
  H   3.00029792169172      2.39589953507131      1.56776313495749
