23
Coordinates from ORCA-job 19718optt
  Br  0.93626168744866      0.03532357690934      0.16106015685673
  C   2.81794148321589     -0.03538321372973     -0.00341462199905
  C   3.51288393334580     -1.20823752621772      0.02505900645252
  Br  2.52831421825517     -2.81534970551029      0.23001125578839
  C   4.94120585068724     -1.28166678810858     -0.04546662031903
  C   5.76078078398612     -2.44282228250076     -0.11033954936578
  C   5.58002879684232     -3.83859540186051     -0.21651269990879
  C   6.85139728721499     -4.43968421000833     -0.23927382189531
  C   7.84418876607979     -3.46357608874098     -0.14735081051861
  C   7.19183715011981     -2.22103636661061     -0.07466815579727
  C   7.69538147570973     -0.91653421511901      0.00088814451618
  N   6.96310263226610      0.16580479966190      0.02087647501364
  C   5.59721624105231      0.00128340260368     -0.01869027369846
  C   4.86859507274439      1.16998339380847     -0.04313882114743
  N   3.47853715692937      1.19350261027333     -0.10965220378661
  C   2.86193163773408      2.42241393427859     -0.26548204231580
  O   3.48526657288796      3.47005659961527     -0.32445368476733
  H   4.65272172595440     -4.37772672932252     -0.28307776697376
  H   7.02326132605199     -5.50498889463539     -0.31997675732827
  H   8.91335649840164     -3.62025292718103     -0.14143182062281
  H   8.77393980615411     -0.76517016542746      0.03859361510260
  H   5.33926420610401      2.13745880872017     -0.05075510823446
  H   1.77658569081403      2.36719738910219     -0.32780389505130
