24
Coordinates from ORCA-job 19717optt
  Br  1.37618008833253     -0.02652792074271      0.81878656710116
  C   3.26246042753814      0.13165464674804      0.42304115401546
  C   3.84073721119486      1.37620940149354      0.34685434539863
  Br  2.88335236745300      3.00963365284627      0.59505735288249
  C   5.25841848704339      1.46170445286691      0.19508581908414
  C   5.88714218321302      0.20867970799286      0.10295581822028
  C   5.19956345717354     -0.96166186978314      0.09298519953293
  C   6.13966318858562     -2.09543270527505     -0.24291308897216
  C   7.32121373502329     -1.34915304375495     -0.91076952882605
  C   7.31310180734954      0.07340788169151     -0.29325698283946
  C   8.30082478007944      0.10173151864355      0.89524133070065
  C   8.31125905210470      1.36617627432180      1.62893523405885
  N   8.37123119023601      2.35331664828122      2.20936135226599
  N   7.70343344285991      1.13719553847262     -1.21539455454080
  C   6.96666948545412      2.17580720783260     -1.25659962725730
  O   5.82715185538466      2.47011579469203     -0.61991119044395
  N   3.86146937353029     -1.05910496654675      0.26885391347737
  H   5.67305563756047     -2.82192825234313     -0.90921879467315
  H   6.45734876320078     -2.63886013080842      0.65509774280262
  H   7.12558462670235     -1.23806389936218     -1.97753285261550
  H   8.28345866161973     -1.85375138397977     -0.79246497612667
  H   9.31209096203548     -0.06000672566283      0.51519739344781
  H   8.05388703374939     -0.70430209617260      1.59012287822966
  H   7.26170218257558      3.01016026854855     -1.88751450492300
