26
Coordinates from ORCA-job 19716optt
  Br  0.59805365831799      0.08404818127805      0.55259475395749
  C   3.15501121227884      0.12336631751598      0.07686491873953
  C   4.01514765359978      1.12433545635993      0.46993705745088
  Br  3.40346339342626      2.75487637075070      1.26803236148444
  C   5.37888460769041      0.88528604079696      0.35996802588989
  C   5.76161505615106     -0.29115991756532     -0.21693941877970
  C   4.94699968555487     -1.36489511067420     -0.46391154574142
  C   5.86109486358198     -2.57849133978533     -0.54786318880463
  C   7.13102488987509     -2.10461278753014      0.23893687707466
  C   7.20422774192866     -0.57562991559330     -0.02114681568487
  C   7.53674685819156      0.53472328506245      1.01053308584589
  C   8.84373080049906      1.17130134129527      0.54700622065477
  N   8.92817223757599      0.77103357067689     -0.84263701067369
  C   8.09708022178172     -0.24146379425240     -1.21471675021690
  O   8.09606121975464     -0.78526058542359     -2.29641687671786
  O   6.47397619502452      1.52297406686394      0.91123687567801
  C   3.57580624576668     -1.13714617729004     -0.34529956330049
  H   6.13146573564341     -2.80484471656447     -1.58141302485809
  H   5.42119435557895     -3.47208857319989     -0.10428516504802
  H   8.03283053967184     -2.63671295503359     -0.06664336356503
  H   6.96840406746058     -2.26646397867632      1.30696501873336
  H   7.57586734615925      0.18855717968015      2.04506942556978
  H   9.69177019132522      0.79221054501179      1.12522601825293
  H   8.79278747155332      2.25397147489304      0.65827163151257
  H   9.61510615816804      1.12193729951193     -1.48876033011537
  H   2.83647759344001     -1.91685127810848     -0.49060921733812
