24
Coordinates from ORCA-job 19713optt
  Br  1.23024930847015     -0.42853452498291      0.67093787609372
  C   3.07285170641212     -0.19325488693381      0.17941085333382
  C   3.58657007652594      1.13389809719657      0.10738322609638
  Br  2.42016947507203      2.62876100302977     -0.45493120931659
  C   4.96993866919395      1.23657726574674     -0.20589883380820
  C   5.64313660500400      0.09064973262226     -0.45261513655212
  C   7.11494380831532      0.18447668618830     -0.39090499279585
  C   7.27560592070189      1.45831679886650      0.46231693040760
  C   6.00409412691451      2.30901294069089      0.09912739930918
  N   5.54338684430514      3.15999518105331      1.17946541156073
  C   6.04628172322164      4.38059574377503      1.41976131062612
  O   7.00262553928428      4.87188136795905      0.85356700785625
  O   7.49966191722183     -1.09356698999554      0.12446194327482
  C   6.38611837390770     -1.96362405496371      0.14105344560787
  O   6.53303357928122     -3.10269007814629      0.50347958091633
  C   5.20705108794748     -1.20788622362602     -0.24493283630531
  C   3.83007388647813     -1.33990487512215      0.08916068686960
  H   7.59274953865490      0.30270647429872     -1.36921173324110
  H   8.20370138280715      2.00720065396812      0.30364835114928
  H   7.19766516803123      1.18017327747566      1.51523005292609
  H   6.22411693789564      2.96025364747948     -0.75240792617868
  H   4.68247040377122      2.88453987105675      1.63193177683191
  H   5.49835888819999      4.91641701352657      2.21324806854396
  H   3.40214503238237     -2.29499412116332      0.36071874679419
