24
Coordinates from ORCA-job 19714optt
  Br  1.28788179460911     -0.45818144744735      0.18738225748503
  C   3.16054186384337     -0.13533274466635     -0.00349101287343
  C   3.61283650841162      1.15678520893451     -0.28010220471483
  Br  2.45260852262838      2.63304662664721     -0.49423864587311
  C   5.02913449718180      1.37058504050644     -0.38783655637698
  C   5.77170359495906      0.20129867983479     -0.35159353859111
  C   7.23391038357347      0.38699061457465     -0.41043353859375
  C   7.36060907161882      1.82064600744813      0.12255137016070
  C   5.95722633499693      2.46492606548287     -0.18435700503383
  O   5.77454729658212      3.67318137556366     -0.12511375224747
  N   7.67185727190094     -0.82752423526440      0.29535654849250
  C   8.96458498912997     -0.98130092816175      0.71387583762685
  N   9.47102124513733     -1.79301064268885      1.55562565308848
  C   6.59221375298800     -1.78121693837735      0.37687645723631
  N   6.66632325146598     -3.01633336686088      0.68174674497450
  C   5.37694865610426     -1.04012626847414      0.02531620555097
  C   3.98009710941159     -1.25330957867766      0.19441861854580
  H   7.59665704605992      0.34924771642975     -1.44413755818673
  H   8.16931617181860      2.40410253873152     -0.31645535640627
  H   7.47709105223061      1.82492649800378      1.21034291556158
  H   9.63152440825451     -0.25286569110476      0.24682813363892
  H   8.75847817137327     -2.36526719199637      2.00245001620339
  H   7.62213013404868     -3.31836683369282      0.83912568738044
  H   3.56275687167154     -2.20390050474462      0.48486272295205
