25
Coordinates from ORCA-job 19722optt
  Br  1.10504278843830     -0.52970986220397      0.19254769702367
  C   2.98994490978837     -0.36565930044650      0.01659919421710
  C   3.62278225312937      0.87662993869924      0.07847322216862
  Br  2.67854240898104      2.49135891522099      0.36260482024367
  C   5.00341426628264      0.91680958269225     -0.05797990829733
  C   5.70664413883933     -0.24769439888104     -0.31461049776751
  C   7.16789696343396     -0.01565983554357     -0.45181327518248
  C   8.01233724848578     -1.23489139623005     -0.04672536328085
  C   7.15724617842886     -2.36597574360751      0.52438072229987
  N   5.95004217546598     -2.60333626920750     -0.29508677366755
  C   5.09837551916501     -1.49054567996749     -0.27812310225360
  C   3.71347418607501     -1.54344041606594     -0.13249085713695
  C   7.32999210326294      1.28371848973074      0.35425958035557
  O   8.42223940000458      1.87827841756269      0.53268829984138
  C   5.97948195414805      2.05592940971591      0.10730785649842
  C   6.05232831032885      2.86907186470683     -1.12146349282897
  N   6.18707661135457      3.46433032195904     -2.09649387671810
  H   7.37808477085270      0.19786919571714     -1.51839677557181
  H   8.74760071193769     -0.92140701444201      0.69839924404527
  H   8.55563763767320     -1.61300417116110     -0.91421573507439
  H   6.86211700812591     -2.10817314765651      1.54995401078013
  H   7.72843557828645     -3.29454467041263      0.55608972320854
  H   5.47055384780374     -3.44988674499702     -0.02197398741033
  H   3.19186552567538     -2.49195711792569     -0.10746115350286
  H   5.72484350403217      2.72288963274370      0.93353042801047
