26
Coordinates from ORCA-job 19725optt
  Br  1.15259971289088     -0.09303430641267      0.24712988733323
  C   3.06365624438369      0.03351591779460      0.02023321540284
  C   3.70315995058421      1.24377354712525      0.00609556576713
  Br  2.72948657202882      2.89963745549978      0.14913233243946
  C   5.11510646208302      1.30861092946179     -0.04842809994669
  C   5.75194492964720      0.02468084255359      0.03555820171423
  C   5.01716524251687     -1.12848823827067      0.02865911213753
  C   5.75998526486357     -2.43269126137085      0.04308836420166
  C   7.04059326487513     -2.25758012536443     -0.75054337886762
  O   7.87126313887102     -1.24151796935200     -0.20872963347809
  C   7.25249564915007     -0.02721571385630      0.19582055249551
  C   7.88398281062913      1.12151490303038     -0.60375766220630
  N   7.29418113413900      2.37579910981872     -0.19066688120367
  C   5.88499460704762      2.47841237694540     -0.57801617854274
  C   7.60199686977315      0.14040853827117      1.63587677232718
  N   7.88755773209501      0.22551735962966      2.74389895713898
  N   3.66784694347095     -1.16938669251000     -0.05519700153101
  H   5.13100651822861     -3.20274218802253     -0.40602586298769
  H   5.99795928520808     -2.74016025419911      1.06672702378971
  H   6.79171013246712     -2.01920405732389     -1.79097978270579
  H   7.65772096635850     -3.15741380654031     -0.73637688594258
  H   7.70561204212093      0.87711911910411     -1.66432160573142
  H   8.95918215668287      1.13326536461064     -0.42096506316207
  H   7.81763241610872      3.15249352970870     -0.57048877115924
  H   5.79666353638160      2.52072419711300     -1.68651181286383
  H   5.48349641739398      3.41396142255597     -0.18921136441870
