26
Coordinates from ORCA-job 19729optt
  Br  0.82327230693101     -0.16955312133432     -1.35875411935899
  C   2.82807172751719      0.08114416051036      0.20897539137648
  C   3.57775259945802      1.22082300896495      0.32128652878601
  Br  2.75483537154742      2.95256639731155      0.09722639317853
  C   4.99164712792192      1.21996268317271      0.51225635008158
  C   5.56969553299580      0.01286701458891      0.78998294315468
  C   7.00559573317186     -0.37814239130370      0.62491584753710
  C   6.86792396257484     -1.85992685576448      0.10058946632091
  N   5.49174219231738     -2.26663563711363      0.48056404718197
  C   4.56217000625294     -3.12274195642139     -0.12855218919623
  C   3.33035113350888     -2.52595390954066     -0.18192369121484
  C   3.46885764749715     -1.16988863936685      0.31659901326946
  C   4.79207840702663     -1.10928391603917      0.70182155006857
  C   7.61326198893202      0.65388798776100     -0.33041818686518
  C   7.19618483976662      2.09158999787813      0.00264421859943
  N   7.98126700967093      3.09835080223529     -0.04560325728671
  N   5.86698152155677      2.28800248932291      0.28827543627298
  H   7.55189451788085     -0.37279796006338      1.57335322330270
  H   7.61515206607234     -2.52673518888077      0.52923223403033
  H   6.96110061257531     -1.87887120231976     -0.99072020120546
  H   4.84289667662079     -4.12122189419584     -0.42464859433139
  H   2.42623960081007     -2.96813578924284     -0.56944925266961
  H   7.23140016604797      0.45386841466538     -1.33712129600035
  H   8.70216835029699      0.61569284983732     -0.36710842321615
  H   8.91645018132054      2.80017033055426     -0.30330943302825
  H   5.53100871972750      3.23896232478403      0.32488600121244
