24
Coordinates from ORCA-job 19730optt
  Br  0.96542234641617      0.24969981954653     -0.13037167014475
  C   2.86722419283117      0.19456284438158     -0.35226149983540
  C   3.65421042440609      1.31343510528389     -0.19845985365942
  Br  2.90222184201725      2.98672588364919      0.33303003326744
  C   5.07240473163767      1.25190212622506     -0.37945886872657
  C   5.56356413180322      0.06319835405577     -1.00218854631492
  C   6.95477499792962     -0.27700981634207     -0.56267102087663
  C   6.82549196794579     -1.79755476078304     -0.14683808034515
  N   5.48352356910397     -2.21506449063893     -0.62850504802163
  C   4.60653656807494     -3.04893934827394      0.06992327614831
  N   4.89475416128756     -4.07809254351117      0.75739907720718
  C   3.18370893288212     -2.47351825643256     -0.07155115657352
  C   3.43453607312507     -1.09171618341589     -0.63848340039570
  C   4.77352972957958     -1.04280517900300     -0.93375364113113
  N   7.15110937390143      0.71973181615042      0.47962989705096
  C   6.13132532205468      1.72286940396947      0.50499907119492
  O   6.23772180224528      2.71420911683168      1.20694538295236
  H   7.73120031602679     -0.18242036455801     -1.33278072467163
  H   6.86881721537279     -1.89886972980106      0.94227202151123
  H   7.60925183946214     -2.41020844648020     -0.59367942234260
  H   5.89678933434757     -4.26461087747198      0.71525264818845
  H   2.70986839517548     -2.46499386701477      0.91220646206465
  H   2.58312996926067     -3.12983994027334     -0.70859634017328
  H   8.07788276311290      1.04830933390637      0.70294140362682
