28
Coordinates from ORCA-job 19749optt
  Br  0.65438547829388     -0.34613255063390      0.35517165948515
  C   3.21193299713664      0.07970687402584      0.59626851794359
  C   3.86463516243118      1.21781054177255      0.18136718924807
  Br  2.94450463115212      2.87565585009083     -0.13338772542301
  C   5.22444580891971      1.16382508881855     -0.06153873417745
  C   5.90205330514456     -0.00824755585369      0.19717656525090
  C   5.26193565938178     -1.19043244791145      0.52254162298154
  N   6.00669110250162     -2.36950252595979      0.52836443726567
  C   7.32921692535292     -2.41053829060071     -0.10099959686509
  C   7.66729033498841     -1.18625109175223     -0.97160548788004
  C   7.31938544982981      0.10646056741778     -0.24256950562290
  C   8.30643945095103      0.47308721132067      0.89342012398630
  C   8.26594169778300     -0.36873265310023      2.08419611701918
  C   8.21084658283525     -1.03682740399973      3.07751007095731
  O   7.29665344347583      1.23487655552350     -1.12121676866465
  C   6.19985787394992      2.08727682452904     -0.74424176546369
  C   3.87944610460059     -1.12248972854158      0.74455126100792
  H   5.44982690078469     -3.19853235607587      0.40542415291514
  H   7.38550708083430     -3.30225589951291     -0.72883279944325
  H   8.09413938558243     -2.51502205728974      0.67168522251031
  H   7.07300682036714     -1.19651810547002     -1.88698737884471
  H   8.72432855786772     -1.22813791644788     -1.24593610029365
  H   8.06329569704141      1.49416230854461      1.19792135473264
  H   9.31870262276692      0.49259487068470      0.48037893580269
  H   8.13510677736297     -1.63701086406788      3.95148884268750
  H   5.78728337078478      2.53452311617648     -1.64860551111396
  H   6.55015017680580      2.89409410727111     -0.08891334283780
  H   3.31399060107309     -2.02044246895800      0.97736864283624
