28
Coordinates from ORCA-job 19748optt
  Br  1.52931092913815      0.25604643171798     -1.22924560738498
  C   3.24140987880938     -0.01770109671547     -0.28947182354341
  C   3.94601910002509     -1.21837533103155     -0.45597410937430
  Br  2.96830075610455     -2.88579776867423     -0.64063687486993
  C   5.31374187124749     -1.26241344543649     -0.32580053098484
  C   5.94208964834203      0.00150777616111     -0.21366914220764
  C   5.15380064449455      1.10647916121981      0.10408565773508
  N   5.97739376364638      2.15831425600575      0.53986759897688
  C   7.24491246755822      1.54674638450553      0.94639748023187
  C   7.35852974504577      0.28294076277350      0.06191190476266
  C   8.11343384475186     -0.92669842589143      0.65113940524934
  C   7.17545920194556     -2.05705659804297      1.08573763017105
  C   6.19217014936749     -2.44670049471461     -0.03028109752950
  O   8.03976246547556      0.67672818982508     -1.21039425044580
  C   9.32860017841769      0.99423383729816     -1.12690114120321
  N   10.06619835142215      1.33171992747610     -2.09664733518016
  N   3.84580534223259      1.14783135686580      0.11332550559976
  H   5.53097386042096      2.76113961159855      1.21584555491282
  H   7.22013018813784      1.22880710570391      1.99750424726949
  H   8.08251954680573      2.23312726956958      0.80563093307689
  H   8.74603894003128     -0.61739951444858      1.48884787749943
  H   8.78095425407737     -1.31931013296531     -0.12028506735193
  H   6.59790267837606     -1.74581966466235      1.96104533415956
  H   7.77699849370344     -2.92034196888957      1.38212875028237
  H   5.59243031260772     -3.30642176319320      0.26544634329398
  H   6.76210199960040     -2.73727513940665     -0.92155441692051
  H   9.76216388624687      0.94634881578880     -0.12588469836458
  H   9.51584750196765      1.32534045756278     -2.95716812786039
