21
Coordinates from ORCA-job 19741optt
  Br  0.90646233293803      0.12088100710361     -1.01661525080669
  C   2.96054951653662     -0.00069283973327      0.30061900992156
  C   3.62152198875722     -1.21910361673696      0.27314380151480
  Br  2.70018604270253     -2.86686158311861      0.43804945876037
  C   5.00410161366209     -1.22113802792612      0.16416320991903
  C   5.66399524826222      0.00573810538509      0.09396305064810
  C   7.08475861926987     -0.08292441698651     -0.00512479774389
  C   7.50269560564248     -1.37462872230928     -0.01466293561430
  S   6.17265668354374     -2.50618664146690      0.10161849258014
  C   7.76662754803354      1.19302440589332     -0.04911965935765
  C   7.03839385366618      2.32107800932210      0.01127750116142
  N   5.65141244771266      2.38698654383421      0.11132338577591
  C   5.06243528379871      3.66868834095841      0.14918152883370
  N   3.85236894540903      3.99985244356870      0.19989200134765
  C   4.91847794578086      1.18057636225161      0.15618029268744
  N   3.60513398249406      1.17412810316991      0.26026878527267
  H   8.51214609494250     -1.74864720028257     -0.07245343787326
  H   8.84192785680609      1.26592440063556     -0.12508334652012
  H   7.51708180537429      3.29045262695957     -0.01912798882723
  H   5.83372457081309      4.44017204521760      0.12699658939255
  H   3.24134201385392      3.17868065426047      0.20851030892780
