19
Coordinates from ORCA-job 19745optt
  Br  1.14670852185135     -0.13828771298821      0.22046217547257
  C   3.09090676995476     -0.15185846281326     -0.34378219204308
  C   3.85667712824256     -1.30496709254265     -0.13810899737745
  Br  3.22711122715864     -3.02215757283499     -0.69646948472946
  C   5.16534590183494     -1.15102298863817      0.30369757620734
  C   5.49842342677873      0.14261206815534      0.71697985653186
  C   4.93714500372874      1.30838975071462      0.14192988851508
  N   3.65219760401948      1.13741899597383     -0.27325849824941
  N   5.81772926398914      2.26890725515125     -0.13337460452787
  C   7.06736820871305      1.64354750156479      0.06885218768465
  N   8.21479853983250      2.00697770777953     -0.40401039239850
  S   9.42589824491501      0.83901678443990     -0.42544174912848
  C   8.77925543542511     -0.87302107571352     -0.22483531348489
  O   9.51153645598820     -1.79115557314056     -0.53665634137953
  C   7.43523364942353     -0.88274703844132      0.26293545117917
  N   6.37808048921400     -1.82514829788066      0.16898925287487
  C   6.85370224557485      0.31097636231788      0.59955094409032
  H   3.19807352228276      1.86979277127919     -0.80114692962995
  H   6.47980836107257     -2.77327338238297     -0.15331282960723
