21
Coordinates from ORCA-job 19756optt
  Br  1.06731964323087      0.22049978171741     -0.36783337292200
  C   2.94466196955023      0.02404375563749     -0.18873839337910
  C   3.58682344866780     -1.21897951343132     -0.24450129080678
  Br  2.52004126666786     -2.74086965735964     -0.63848847284079
  C   4.97942716478961     -1.33192502129559     -0.09652943814756
  C   5.78842602151021     -2.52762469779828     -0.04061682832855
  C   5.38696886385514     -3.84954732911600      0.29749201606186
  N   6.15658130926902     -4.89395513376300      0.28724515590176
  C   7.47627642909599     -4.73966794379690     -0.15929283309961
  O   8.15313294121657     -5.71288114235202     -0.44178174130092
  N   8.01048885829283     -3.45523999534143     -0.22285061097240
  C   7.19925565113294     -2.45893546609611     -0.16823279618016
  O   7.83117874388044     -1.23387952896170     -0.20123173363930
  C   7.09691526261668     -0.11976821588661     -0.06038710261798
  C   5.71794852347839     -0.09288446565685     -0.02819717417370
  C   5.03867589854522      1.14762070113497      0.04938597203117
  C   3.67348779054320      1.20256164494450     -0.01274745538252
  H   4.37779100605471     -4.01485257087512      0.65291364169202
  H   7.70071212717005      0.77533286668440     -0.02341709504364
  H   5.61889538825460      2.05715911635176      0.14550087574368
  H   3.14899169217759      2.14579281526005      0.04530867740453
