22
Coordinates from ORCA-job 19757optt
  Br  1.06449751459634      0.07500061219518      0.07275376697490
  C   2.96855520170124      0.05866293621356      0.06995379407904
  C   3.65612030555717      1.26738793198738      0.07188877445270
  Br  2.85624252290238      2.97972544899784      0.07609839866387
  C   5.06048125574252      1.17718517231789      0.07034597709877
  C   5.63125716227059     -0.07472333559646      0.06680203301887
  C   7.04254315911702      0.07959625471007      0.06545754843489
  N   7.34396092877820      1.37276450458851      0.06833847505050
  N   6.11170456277092      2.02834102883569      0.07144822914777
  N   7.85112602685995     -1.00550851648332      0.06162438173853
  C   7.18880979187565     -2.18123790602183      0.05932049619717
  N   7.91320970808358     -3.32407197545720      0.05550638046983
  C   7.50425579055246     -4.64265048569673      0.05098132476313
  O   6.29138702760264     -4.99345361967946      0.04985279233576
  N   5.79634082432651     -2.36033919488619      0.06054388869495
  C   4.96362750443837     -1.28663950626001      0.06441185610656
  C   3.56582897470488     -1.21544364734597      0.06624481611429
  H   6.09012672704738      3.03025104170839      0.07296293129752
  H   8.90621032653263     -3.14780485513478      0.05533131347130
  H   8.34143089260032     -5.34287377525363      0.04875545130919
  H   5.50355464704911     -3.34274723379688      0.05744994600297
  H   2.94172914489008     -2.09642087994205      0.06492742457750
