23
Coordinates from ORCA-job 19750optt
  Br  0.62582720486899     -0.07196649273579      0.60619613405983
  C   2.96747401632131      0.01356515262120     -0.25671201595152
  C   3.66081545906048      1.20299785243772     -0.30043782115203
  Br  2.79785441357180      2.89120780310160     -0.52422326785089
  C   5.03362495470816      1.14250020241067     -0.22215939491346
  C   5.70920389643429     -0.05681862468047     -0.08434760625888
  C   7.15428151227245      0.24066663227725      0.07811857426359
  N   8.02438258934897     -0.52244848339883     -0.79126011030015
  C   8.03522255040933     -1.92538561379383     -0.40104507817099
  C   6.77143714609267     -2.68131991968731     -0.79512865033629
  N   6.70703385620912     -3.57710443923410     -1.67510332812891
  O   5.65166837892557     -2.47277229560757     -0.03585303664595
  C   5.00537526315532     -1.24447474268793     -0.09874044682224
  C   3.61887660670900     -1.20809079216411     -0.16847274235064
  C   7.18894390515357      1.73737677300121     -0.22448811821262
  O   8.16058094233022      2.41442684864682     -0.36638896355675
  O   5.92518221719256      2.21795251549693     -0.28851369501008
  H   7.45173637693817      0.13355203949983      1.13796453450830
  H   8.96148796303276     -0.13640955599881     -0.74773039436928
  H   8.16020941412271     -2.05162270524609      0.68636444229949
  H   8.87370367009335     -2.41005029427191     -0.89863097302484
  H   7.61051225721674     -3.68784102532787     -2.12904857631937
  H   3.05856540583231     -2.13594083465862     -0.15935946575633
