21
Coordinates from ORCA-job 19754optt
  Br  1.26319632084885      0.25619796068808      0.65668760686625
  C   2.95556399455126     -0.03573162318759     -0.26910921416158
  C   3.59800282766191     -1.28099921153481     -0.15955048330435
  Br  2.58719295832403     -2.88205352403962     -0.26074532206485
  C   4.97049604346378     -1.33721410982030     -0.10952616211437
  C   5.69328306948410     -0.13490332790540     -0.06872486488512
  C   7.10267362279213     -0.10956746560644     -0.01204100940286
  N   7.72593674350269     -1.36153037505699      0.03889098444676
  C   7.08349605983492     -2.57085957282494     -0.02183111033005
  O   7.68042826801099     -3.63148479140723      0.01138395949215
  N   5.71258535936361     -2.50997232087317     -0.12378498546807
  C   7.76204222249700      1.07539450826562     -0.01919763037937
  C   7.01460153965772      2.33126414366272     -0.09109552283394
  N   7.56508157844365      3.50102583993585     -0.09295315339654
  N   5.62053639988577      2.26816769476515     -0.17815372517409
  C   5.05500632116035      1.11748113404210     -0.16757298936041
  O   3.68200564092262      1.11547292724606     -0.30815899806258
  H   8.72935189028972     -1.42270771283241      0.09415936431482
  H   5.23949116983404     -3.40086430128649     -0.13112688073578
  H   8.84425926914083      1.11344710324099      0.01602156274084
  H   8.57476870032922      3.38843702452888     -0.03057142618682
