22
Coordinates from ORCA-job 19753optt
  Br  1.25743421516745     -0.34463294895872     -0.59780874893166
  C   3.12284772478165     -0.07951587129453     -0.21732914726091
  C   3.73257977656415      1.18016290470004     -0.35154455362080
  Br  2.74621351202120      2.81950687627556     -0.03326454070873
  C   5.08789473748697      1.25536090969772     -0.48448710140289
  C   5.80778931361529      0.05481807618112     -0.68899808479283
  C   5.26381979591291     -1.10717572524019     -0.09603867907734
  N   6.33867232940289     -1.81269006491373      0.47508015889902
  C   7.50150166437631     -1.07325721656533      0.52307088239256
  O   8.53870562633030     -1.43842339479379      1.01745842545736
  C   7.20082331894707      0.24464387809134     -0.26764196906774
  O   8.13395517883246      0.29263147092508     -1.39207357946773
  C   9.40606023287637      0.64014366850856     -1.19250121195611
  O   9.93878316629503      0.95940798020725     -0.17486541717964
  O   7.23748954393790      1.47231936151685      0.40809494186469
  C   6.11404613179482      2.26831120759638     -0.03685876998113
  C   3.91636593669231     -1.22902250824942      0.09549826689770
  H   6.26963863333353     -2.68634543079749      0.96971684700276
  H   9.92502633270706      0.59769566469807     -2.16322605242554
  H   6.44303323113775      2.93148327098362     -0.84381421213224
  H   5.77968662115962      2.86958901509223      0.80720097007345
  H   3.46363297662683     -2.09501112366062      0.56333157541777
