21
Coordinates from ORCA-job 19755optt
  Br  1.27976712028752     -0.05380155349259      0.54499842660668
  C   3.14044665028719      0.16338377442423      0.32993076510741
  C   3.80714346003257      1.34533200399856      0.35115666765038
  Br  2.78974403658238      2.91232748251561      0.66870957433372
  C   5.24882198902091      1.38339660484779      0.20602454457411
  C   5.86268797285483      0.10957453807628      0.19590837519448
  C   7.20292127044010     -0.33849250769096      0.16588887673554
  N   8.35236539030700      0.46209669833493      0.25287319167472
  C   8.50268862631300      1.78887650645019      0.07201383424075
  O   9.61615312122936      2.30697231855083      0.07334095912331
  N   7.39568490734111      2.59629143192998     -0.13458602914988
  C   5.97821137455893      2.60254397546418     -0.02443909030496
  O   5.47799672522445      3.71101941851035     -0.17674026540477
  C   7.21476548182222     -1.72187470542886      0.12135544939454
  C   5.86730304571992     -2.20177530319222      0.11972589494988
  C   5.07884761399993     -1.08356093204808      0.17217516020789
  O   3.70559538167674     -1.04292301986269      0.16439400065556
  H   9.23398160609830     -0.00857925980038      0.37238478454878
  H   7.70265044316425      3.54739412374414     -0.28382938396918
  H   8.10405128942032     -2.33659569492884      0.11026639446347
  H   5.54017249361884     -3.22760590040245      0.08044786936759
