20
Coordinates from ORCA-job 19759optt
  Br  0.96173876566761      0.26285829792342      0.07015491962006
  C   2.87160727526468      0.11056405768509      0.07138353574824
  C   3.48630242983926     -1.13120093221496      0.07254279163521
  Br  2.50911258893417     -2.75189576018952      0.07381964038176
  C   4.88545024729253     -1.17017793916645      0.07285290030191
  C   5.86057303567439     -2.20085551410252      0.07353405975854
  C   5.87225755209410     -3.60920524968258      0.07390745204913
  N   6.96170039703983     -4.30687039663441      0.07446298040456
  O   8.16606686694963     -3.62290355244907      0.07465871919100
  N   8.29032419872205     -2.24924758994311      0.07422398418287
  C   7.14529272243832     -1.57466832603235      0.07369407375852
  C   6.99381386601155     -0.16039735889544      0.07283633015652
  C   8.04776895413922      0.80036871562596      0.07278871121717
  O   7.90766583506313      2.01720813545548      0.07223299127417
  C   5.58771696752277      0.08206989854818      0.07234192400725
  C   4.84565437450838      1.26329589336219      0.07140704518280
  N   3.51708097156675      1.26320954069062      0.07084870291254
  H   4.97205307754389     -4.21030388627401      0.07384308293461
  H   9.06352453013776      0.36353018003955      0.07347448263838
  H   5.34429534358995      2.22362178625392      0.07099167264478
