21
Coordinates from ORCA-job 19760optt
  Br  1.01536034146793     -0.98908458918490     -0.88481790295111
  C   2.83815929000059     -0.55487384732306     -0.42621372939232
  C   3.76674039140035     -1.62819696722881     -0.38182502931313
  Br  3.36232812952651     -3.42768551681562     -0.77253321566819
  C   5.08908907261375     -1.27045784979248     -0.03412388466830
  C   5.26886557983953      0.05699691114794      0.22103512849638
  C   6.57354339938885      0.44791272970720      0.51719063312078
  N   7.46424054607009     -0.51095386545488      0.51358989189890
  S   6.67507585256107     -1.96157078157856      0.14093647027711
  C   6.52388653027692      1.95085722867054      0.70522070589366
  C   7.44433235010696      2.74745500467188     -0.20071469684831
  C   8.84865768606716      2.92130291490665      0.29868480151796
  O   9.22170192409301      2.72378140777083      1.42251259208831
  C   5.00338305575700      2.31209986541486      0.39223706514094
  O   4.62512320209612      3.48307104873556      0.37988155924012
  C   4.31638875337912      1.07651597520185      0.13262803580648
  N   3.03572228333091      0.71797321484995     -0.20498523881770
  H   6.72970070441055      2.22198151860197      1.74399478847847
  H   7.02809411533712      3.75889199546537     -0.31374433797234
  H   7.48336441019294      2.32177153632035     -1.20799064772663
  H   9.56624238208346      3.30121206591333     -0.45896298860106
