21
Coordinates from ORCA-job 19766optt
  Br  1.51696480192698      0.93229621031988      0.38869137839572
  C   3.31135288807440      0.28707370428509      0.16859004458180
  C   4.42416178422690      1.13338344428347      0.47919442508347
  Br  4.10533792116967      2.78211599988068      1.34385377666653
  C   5.71730171455750      0.67341293589878      0.21696030832153
  C   5.80276435029920     -0.66351519032735     -0.21069839848378
  C   6.89331456548095     -1.54117371468683     -0.43887071008523
  O   6.39236456645643     -2.75217619707884     -0.85484644798541
  C   5.00420560842113     -2.72681575389390     -0.88630508593529
  N   4.29781507859627     -3.73178486112459     -1.22624360521504
  C   4.63067061461603     -1.40296938436687     -0.46151019871517
  N   3.38691707878794     -0.91132654913358     -0.30134972608562
  C   8.23423111494658     -1.39888387204979     -0.20904706339722
  C   8.82107930123634     -0.20768227670278      0.23509567145548
  C   8.25820666817867      1.03203181327180      0.44645939068447
  C   6.93126687026686      1.56440471305969      0.26731733172602
  O   6.77251060403731      2.78222761854409      0.16580903861717
  H   4.90713437396610     -4.51428947426212     -1.45538494189461
  H   8.85973754346017     -2.26663058688503     -0.37411410943801
  H   9.89230981645556     -0.25748614169901      0.40127063104830
  H   8.94835273483896      1.83078756266720      0.69612829065490
