20
Coordinates from ORCA-job 19768optt
  Br  1.03911705541231     -0.08692586035606     -0.09379340633694
  C   2.92690503421145     -0.04006793876746     -0.09112105198999
  C   3.61487514540429      1.16683097129860     -0.08984204433313
  Br  2.72567654774202      2.84655671864099     -0.08945059435104
  C   5.01344810637019      1.18047439814488     -0.08870968973034
  C   5.68230135010214     -0.01710820543549     -0.08882062735012
  C   7.11189398655340     -0.02377490810655     -0.08803092856181
  O   7.80525272787802      1.16871137863511     -0.08743144306832
  C   7.15483649382877      2.37078001347348     -0.08698899966870
  N   7.80693163947894      3.46102203287940     -0.08612998025001
  N   5.79488695245435      2.34834777937186     -0.08753069002800
  C   7.75229847934376     -1.18926873016174     -0.08802472183002
  O   7.09330194150209     -2.38143937768808     -0.08869861176235
  N   5.68284772570409     -2.44145609198154     -0.08970015489823
  C   5.04574382955751     -1.28236323519408     -0.08970507733825
  C   3.56217461618736     -1.34097167915925     -0.09084165179920
  O   2.94089492299607     -2.40646629053967     -0.09159463355657
  H   8.80156561009152      3.26112562192281     -0.08580001110965
  H   5.34800405718833      3.25061936845704     -0.08726863051940
  H   8.82604377799335     -1.30462596543425     -0.08751705151797
