21
Coordinates from ORCA-job 19767optt
  Br  1.58637801634935      0.95506981092409     -0.24591350717082
  C   3.32351111000060      0.19309856799833     -0.21061215783175
  C   4.47482206418740      0.95904355199177     -0.30992591777911
  Br  4.36866096894469      2.83684915660268     -0.51935098802017
  C   5.75521562797955      0.36269424353128     -0.26364137978807
  C   5.81382275566055     -1.03318565350058     -0.09948938994834
  C   4.62058088489342     -1.77482509841799     -0.03453206342874
  O   4.87611857022674     -3.10300714096295      0.08831828192153
  C   6.26974034122225     -3.27034258910474      0.11682324075525
  N   6.79738209209675     -4.41499104747710      0.22057342021023
  C   6.89525897463008     -1.94107913726549      0.01362932929691
  N   8.20792661994339     -1.79385518641319      0.07848880621399
  C   8.78328614696757     -0.56181775494035      0.00495690523475
  N   10.04823254339415     -0.45844716651949      0.23448312553769
  C   8.08266740832108      0.74865802703654     -0.35114811354560
  N   6.87587419582019      1.15084679350605     -0.42805693883616
  C   3.38156780513245     -1.20972278263478     -0.07954086537245
  H   6.06789587257106     -5.12386704566600      0.27273135329512
  H   10.34215576187553      0.50883296316341      0.12042292623808
  H   8.82122854514829      1.52984250713874     -0.54560434804471
  H   2.48067369463483     -1.80179501899022     -0.01761171893761
