22
Coordinates from ORCA-job 19764optt
  Br  1.18798635833906     -0.45896274215307     -0.09075431432146
  C   3.06998143096989     -0.12553288246567     -0.03035140283079
  C   3.54816383278308      1.14101659387454      0.20795078928443
  Br  2.42847738133540      2.66402008308058      0.34449338417164
  C   4.96662600269812      1.30456875135592      0.29951729420346
  C   5.65279679586995      0.07630775303314      0.45191754300850
  C   5.10085545809716     -1.03512342109725     -0.12912762009717
  O   6.06778696575250     -1.85098648630827     -0.65168154795222
  C   7.22844516939908     -1.00232042933041     -0.84661386060246
  C   7.10066001193726      0.18427175061872      0.14924450411820
  C   8.17901194057997      0.21403108446152      1.26143640042748
  N   8.94765865018305      1.45310092747712      1.05830546985529
  C   8.30512272146198      2.14188896226745      0.20759616306622
  N   7.18031508310339      1.56591303040505     -0.38237331381066
  C   5.89387360362814      2.28280524550534     -0.20715192589281
  O   5.80358383119485      3.46629017314212     -0.47876312084672
  N   3.81619269269105     -1.22322074788140     -0.33740808036724
  H   7.21607362131988     -0.63781140166730     -1.87707195215692
  H   8.11197996566538     -1.61585623499208     -0.67679836222100
  H   8.83599994117135     -0.65545625405828      1.21563924038426
  H   7.73440897614961      0.24225322713010      2.25956289518847
  H   8.56799956566976      3.15580301760210     -0.06956818260850
