20
Coordinates from ORCA-job 19771optt
  Br  1.30367394250471     -0.33664839396048     -0.05117221760362
  C   3.19424427430799     -0.09424764591177     -0.02367502366533
  C   3.73745711732375      1.20028193712954     -0.00951561399208
  Br  2.65617500980033      2.74952144026606     -0.01441918938341
  C   5.13400291958371      1.35703012508939      0.00817157240901
  C   5.83640583257814      0.15019040270834      0.00930077599039
  C   5.33339828058444     -1.14931620580943     -0.00477803635822
  S   6.69110213738012     -2.29093516639267      0.00079119411952
  C   7.88301015107915     -0.99059322020747      0.02152009979588
  C   7.20866339203867      0.18077290184438      0.02326630740682
  C   7.99070698151345      1.36930430758487      0.03468316617173
  C   9.30525622884516      0.91517042236370      0.04143745476364
  C   9.32376618087219     -0.58042678021801      0.03244214414100
  O   10.32673909536457     -1.29258987829097      0.03321850671120
  C   7.16138255586967      2.53828685065932      0.03404557928048
  N   5.83553457462096      2.54505662209907      0.02199063821239
  C   3.94777466862747     -1.27752299716278     -0.02129609090756
  H   10.22541447747105      1.48045780860698      0.04987333552851
  H   7.61638585848727      3.52584067015930      0.04483591427154
  H   3.43790632114714     -2.22963320055738     -0.03372051689190
