21
Coordinates from ORCA-job 19774optt
  Br  0.82452594062582      0.17614642668192      0.13880620712606
  C   2.73898918511637      0.00981473876266      0.00718008648248
  C   3.55416152725471      1.16836200528501     -0.04149417721800
  Br  3.18249234045063      2.72307173589392      1.04229168987733
  C   4.81245831242703      1.03765031349022     -0.55413255574993
  C   5.13170389029645     -0.18347203631370     -1.20684832811436
  N   6.51795409248466     -0.32731481030521     -0.99530453962261
  C   7.00054570159538      0.65791166513877     -0.22012290218123
  N   6.05194200094650      1.70395351398036     -0.24396793878570
  N   7.89822907652566      0.22319147498852      0.63939318587643
  C   7.81941783101510     -1.16747892823883      0.51289876580800
  C   6.89727094110897     -1.53019178841127     -0.44332171263119
  C   5.67832362459874     -2.44651080166682     -0.66438044738518
  C   5.51395849400423     -3.45811363259600      0.37339230659280
  N   5.38193481524126     -4.27406105373557      1.16865685010066
  C   4.52737440952869     -1.39068092482285     -0.73128644516647
  C   3.28832730246538     -1.29535172129601     -0.15759353883925
  H   6.04995141222313      2.34307759144889      0.53793823104383
  H   8.41119172651389     -1.80173770027505      1.15272540993579
  H   5.75199692374093     -2.97365744663932     -1.62277564926248
  H   2.74925045183633     -2.15660862136963      0.22094550211301
