21
Coordinates from ORCA-job 19787optt
  Br  1.60757966325317      0.60666193077480      2.37876636061719
  C   3.04609162993522      0.10129692965424      1.26912831409452
  C   3.59136127372204     -1.18611802605507      1.22829764528437
  Br  2.94666626410999     -2.49009141591098      2.43753037765888
  C   4.59769333209677     -1.51610909340034      0.33109839593434
  C   5.45691478509020     -2.68172793222065      0.43506376027650
  N   5.80369972886473     -3.28315734078742      1.59012458227807
  C   6.50481611148226     -4.35587824920718      1.18069957215495
  N   6.62043437422379     -4.52663704550784     -0.13549159802992
  C   5.97745211888091     -3.43777575336993     -0.63061440379009
  C   5.70139413807554     -3.19807926363193     -2.00513198702948
  N   5.43123355639187     -2.06661593889270     -2.54936925579957
  C   5.56349768142433     -0.84211783662332     -1.91746671687831
  O   6.14549855560528      0.07202724280286     -2.46094195727629
  N   4.86989549041165     -0.57673080337426     -0.70451729941509
  C   4.52155845110773      0.75758053834761     -0.49412942331652
  C   3.62472440698100      1.10081273731200      0.45011560691876
  H   6.94635856497291     -5.04310627477323      1.89021000480497
  H   5.68778601276099     -4.06667980648131     -2.66393039926600
  H   4.98770035061942      1.45853449904496     -1.16590668055639
  H   3.34364350999011      2.13691090229973      0.56946510133511
