21
Coordinates from ORCA-job 19788optt
  Br  0.95519961845835      0.12344307523234     -0.07087475182769
  C   2.85449329503468      0.09803228655213     -0.05226952329843
  C   3.62944678392979      1.24442926422324     -0.13325743950868
  Br  2.72754408361846      2.89390104560419     -0.35410896382414
  C   5.04719202831402      1.16986296771773     -0.09386365748606
  C   5.90538501258795      2.33046353246726     -0.07504242726476
  N   5.57413687262817      3.64458905529659      0.03545371926193
  C   6.74928502664025      4.27149104825026      0.02560605068748
  N   7.84896314078574      3.50326375478736     -0.08060061828387
  C   7.31499177927223      2.27546121441616     -0.13511764654024
  S   8.26555529958320      0.86571720547270     -0.23877048242736
  C   7.07033169017536     -0.37703974699943     -0.10882662236952
  C   7.71842658658196     -1.66095742957989     -0.09436371166672
  O   7.23473584797659     -2.78640722342467     -0.01832426278672
  C   5.65015011477503     -0.13708360309728     -0.05914067116705
  C   4.81127573451755     -1.26855382151930      0.02337299684514
  C   3.44607101793661     -1.15706274319898      0.04092160603234
  H   6.81936221082999      5.34803369104342      0.10392565990077
  H   8.82199589323616     -1.57340644668798     -0.16352999001504
  H   5.26806856369247     -2.24328470080287      0.07167146930870
  H   2.82338939942533     -2.03789242575299      0.10913926642992
