20
Coordinates from ORCA-job 19799optt
  Br  1.22816787746936     -0.44713908213598     -0.33027985721375
  C   3.01978695348120     -0.03248183079132      0.10957713417198
  C   3.65199785395783      1.13379846475683     -0.16383287170370
  Br  2.67757832007700      2.67150501041469     -0.72882382563155
  C   5.05178025163187      1.19200140101541     -0.01665076948350
  C   5.84279385296490      2.33823945233182      0.10623760247831
  N   5.60664708509312      3.66499099730435      0.27358920127437
  N   6.75675599047001      4.34810337049357      0.32967536761335
  N   7.73928122491146      3.51527077972980      0.20226275003890
  C   7.23437400470887      2.25311617317006      0.06016715406814
  N   7.94330998487099      1.13281108983647     -0.12943798132905
  C   7.28324249575340     -0.01680387714286     -0.21247733004951
  O   7.80900738259762     -1.10512841144590     -0.41307298459904
  N   5.80156703227383     -0.01723319612756     -0.03621405710925
  C   5.13313344585168     -1.23559190199549      0.19004256882481
  N   5.56293212931640     -2.42116534210597      0.13471374262791
  N   3.78645263674914     -1.07310718058335      0.59552145384579
  H   4.72993816330875      4.15161435410165      0.33128764589636
  H   6.54984615560577     -2.40442386913789     -0.11596222454427
  H   3.34240715890666     -1.97037640168836      0.71367728082370
