21
Coordinates from ORCA-job 19796optt
  Br  1.29664071351210      0.34873433538456      1.11369667191548
  C   2.96809676592274      0.23286232663255      0.14056620578335
  C   3.85021704382113      1.29182569316558      0.10375563257282
  Br  3.07170238525453      3.07155128161437      0.13636648970296
  C   5.24746333888155      1.19657487638571     -0.02812474164008
  C   5.85251972943301     -0.06749792521595      0.03721999318423
  N   7.21694854147369     -0.40810883423859      0.07698968023383
  N   8.30151981657705      0.33037458905959      0.18522896701589
  C   8.33000822585682      1.60642032024256      0.14251194662023
  C   7.30496659833404      2.64383428539919     -0.08133483503065
  N   7.63320387289629      3.88533684484180     -0.15463704014004
  N   5.97589970422429      2.35749406531266     -0.25298889368350
  C   7.38044271182531     -1.84959873575074      0.09969705745014
  O   8.46962475007861     -2.38676754693441      0.14397934579392
  C   6.04762560136291     -2.36346215618798      0.05520143498649
  C   5.17072791889524     -1.29876752035078      0.02253371096325
  S   3.45230766837858     -1.40085798934892     -0.17857865701494
  H   9.32490665145293      2.02497802115157      0.25706750945775
  H   8.63581425713353      3.98650375712758     -0.03395207561138
  H   5.42847156629814      3.20084799619889     -0.35108319724775
  H   5.80789213838736     -3.41227768448922      0.03488479468800
