20
Coordinates from ORCA-job 19793optt
  Br  0.93442934597441      0.07952805428867      0.26247851647169
  C   2.80028887604114     -0.01368400270479      0.06574981777263
  C   3.45536897982604     -1.16899996580658     -0.16731364797515
  Br  2.53674944789133     -2.81152673525286     -0.36340734787184
  C   4.87299788204069     -1.19037398206346     -0.33069911841899
  C   5.54547612923799     -0.00407205100923     -0.23686602613781
  N   6.93884863511945     -0.03512486195770     -0.21136980883302
  C   7.56437809138693     -1.12063068637190      0.38738112900297
  N   7.18402250847951     -2.32972910254133      0.38916427142553
  S   5.80955566882254     -2.66165306552372     -0.57415206057435
  N   7.76331893416506      1.08671788945943     -0.29612102914461
  C   7.09076223629309      2.23385335835541     -0.32218462241800
  C   5.71388323248838      2.43901355969309     -0.21939529903934
  O   5.14656792177436      3.54217013457118     -0.27046316218673
  N   4.91227153802185      1.20283956602652     -0.06850018548881
  C   3.50897886765610      1.27442346699251      0.18064949495353
  N   2.86351597221859      2.32607173434554      0.47671643605713
  H   8.48022222507938     -0.83477411293129      0.89564721291424
  H   7.69024348908485      3.12641675742730     -0.43630313595023
  H   3.48412001839821      3.13153404500318      0.46798856544115
