20
Coordinates from ORCA-job 19792optt
  Br  0.89832393437081      0.22669276514258     -0.53268396237581
  C   2.75531020440633      0.23383186981282      0.05224204909036
  C   3.51067116334460     -0.94969959840498      0.13789155106716
  Br  2.70095343726396     -2.51746747740596      0.87475664008220
  C   4.86269302903486     -1.00703871336168     -0.19325790261456
  C   5.40997713083700      0.09763553434538     -0.84217096559614
  N   6.77037780533481      0.40179591383314     -0.57091816770338
  C   7.40449074544101     -0.67246378976734      0.05101594771289
  N   8.62191011263294     -0.84974362015230      0.34884254624668
  S   6.19700886657807     -1.97268753570368      0.42205969346215
  C   6.88449125908793      1.82275590454527     -0.18984633422908
  N   7.93288456331932      2.42898185946295      0.19274721582618
  C   5.51502944008616      2.34662527411619     -0.30266118213266
  C   4.72360032927121      1.28733229783746     -0.68662238722658
  N   3.46643171402516      1.41537564360688     -0.24304375833507
  N   3.35774419790862      2.63001638300265      0.41789178443362
  C   4.56388539040568      3.16671550627365      0.37929583041895
  H   9.20257592993267     -0.09865296612303     -0.01156820124704
  H   8.73145159979307      1.80824202675886      0.26819786856836
  H   4.71218914692573      4.12775272218112      0.84883173455177
