20
Coordinates from ORCA-job 19809optt
  Br  1.08976576029390     -0.10245554730601      0.14812146876384
  C   2.98174755869503     -0.01368120491861      0.08833881291062
  C   3.64949437650055      1.20320975026289      0.18905880977130
  Br  2.66798260662117      2.71716001860399      0.78730630448331
  C   5.06020039447546      1.29228633206201      0.02568940063155
  C   5.84999985570889      2.42427025826494     -0.18494923211137
  Br  5.15912904474941      4.02768945408292     -0.93677034515620
  C   7.28718876373254      2.43181104580581     -0.04645924705276
  N   8.13535440113496      3.37186051404993     -0.18036623789025
  O   7.85335965928595      1.22870124808733      0.31930561436081
  C   7.15383241417663      0.07904807354251      0.24649233469694
  C   5.79206157571184      0.02581928032033      0.10366434245281
  C   5.06623113246522     -1.18469262425642     -0.00315096840916
  Br  6.03661767677839     -2.81157563144590     -0.10775818393767
  C   3.67628368669293     -1.23224600121698     -0.06355672485712
  C   2.98320977041955     -2.46242950032854     -0.23711630810301
  C   2.40559832713508     -3.50490012677057     -0.38573382499962
  H   7.66187289997385      4.23328847837580     -0.42652239660997
  H   7.78246034195470     -0.78974588634604      0.34431490837759
  H   1.89460975349386     -4.42741793086940     -0.51190852732165
