21
Coordinates from ORCA-job 19804optt
  Br  1.00774874872054      0.25037780995275      0.27535471112254
  C   2.90368137635331     -0.08717811257105     -0.00963860371333
  C   3.52819710249155     -1.24003148812317      0.27514692883887
  Br  2.58431583364211     -2.57545221407852      1.28813867106605
  C   4.96737746296861     -1.34536396328081      0.07017924830979
  C   5.69064631189611     -2.53190588637598     -0.12660188182029
  Br  4.94384606482444     -4.19850278576884     -0.63013235957233
  C   7.07187655782774     -2.42157187971394     -0.06943917210779
  C   7.77361332151120     -1.25089808906799      0.18493706092465
  N   9.13587893054925     -1.54701094099374      0.19289318451214
  C   9.19115067699447     -2.80094188027196     -0.04809800484869
  O   7.99206036692813     -3.42280187980804     -0.22682947060248
  C   7.13790122294090      0.01957548792743      0.32356724062422
  N   7.70581468733373      1.16695735378882      0.53086009080194
  C   5.66797979912256     -0.07411179318164      0.13246930943730
  C   4.97012269996566      1.08258799480559     -0.07203748612173
  N   3.60449979708627      1.02521904074057     -0.35494996417252
  H   10.06511024558541     -3.42713179056130     -0.12346292839128
  H   8.71269074090078      1.02374287106543      0.59039911526742
  H   5.43998417434024      2.05293160710207     -0.02330318678879
  H   3.15350387801688      1.74751053841436     -0.89445250276569
