21
Coordinates from ORCA-job 19805optt
  Br  1.08103412710046      0.32982839552966     -0.36687813445822
  C   2.96411547624279      0.10369369399358     -0.10788383132993
  C   3.52464201553236     -1.15296526250274      0.07712960549314
  Br  2.64480234187418     -2.30671454733127      1.42095053541754
  C   4.97094265624719     -1.22404294449345      0.00389548549844
  C   5.67886063243778     -2.39716211198381     -0.13015462642379
  Br  4.86440661940806     -4.05772154556906     -0.50963460400528
  C   7.09016811112148     -2.36677250355603     -0.06460855515018
  C   7.71569557310626     -1.16655671260017      0.10927676371139
  O   9.06626518746172     -1.32145828245996      0.15448326703077
  C   9.29309312116027     -2.64805468457275      0.00565157267743
  C   8.14196610268078     -3.34350957993435     -0.13401319801931
  C   7.08501226651356      0.11432935505786      0.17991947016591
  N   7.66459594685725      1.25131505969249      0.30428234554106
  N   5.67672124083947      0.00045460252485      0.07125430839311
  N   5.07110094173364      1.22513075494639     -0.03768814491545
  C   3.76905963091299      1.22789603633545     -0.19277894148514
  H   10.32673053321460     -2.94862499057895      0.02108490367990
  H   8.03699969836696     -4.40668219327481     -0.26601279526367
  H   8.66722288348237      1.08513395632939      0.35080964065106
  H   3.33856489370573      2.20448350444769     -0.38308506720876
