18
Coordinates from ORCA-job 19800optt
  Br  1.39216195853107     -0.07971338459511      0.34469002929216
  C   3.27885528329863      0.09859351996539      0.16871923575800
  C   3.85862162268041      1.32866889047032     -0.13260756201900
  Br  2.86137486074567      2.89864793034808     -0.39658065090791
  C   5.25508097077192      1.41393797934703     -0.24191683804681
  C   5.97922712777992      0.24125083525410     -0.06335646648536
  N   7.34386586668586      0.07264228083186     -0.18347354298528
  N   8.32351928335032      0.99716283622459     -0.65842903442305
  N   8.18137282882991      2.24568798071536     -0.29286718481038
  C   7.08042340002722      2.95447574218750     -0.00689649815927
  N   7.02631808427677      4.08211291791322      0.59630488530143
  O   5.80788081272826      2.58334457445261     -0.53917904120670
  C   7.78105003528488     -1.22078066360017      0.00853011597289
  O   8.89969003294934     -1.64353548308532     -0.05951124790241
  S   6.35916989512485     -2.27521459402044      0.39257666596448
  C   5.27540436620574     -0.92501429891632      0.23497551028836
  N   3.96402808452155     -1.00879608946670      0.35725332454196
  H   7.97395548620758      4.31052902597398      0.88676829982690
