21
Coordinates from ORCA-job 19810optt
  Br  1.13546671417424     -0.26700567726994      0.02248438569195
  C   3.00558488288860     -0.03682715488379     -0.15509644276340
  C   3.67895544407289      1.11662986953601      0.22266357120134
  Br  2.73753602310770      2.43654254404736      1.20372994589055
  C   5.07708262705575      1.23167146350818     -0.00365391860843
  C   5.81975791734276      2.42564884512826     -0.03836222170067
  Br  4.98610119113256      4.05236015612522     -0.61636922339171
  C   7.23468514812113      2.56039190156020      0.11113018571051
  N   7.99908352738360      3.58990376187852      0.09613828604217
  S   8.14138657361645      1.07026072800156      0.48405566926820
  C   7.10234741327527     -0.18884968262793     -0.09594125419004
  N   7.78980169686012     -1.38528678204109     -0.35379249869413
  C   7.43602764699428     -2.62442923268837      0.07839843978029
  O   8.04725589589295     -3.63208446071944     -0.20653547168938
  C   5.73573110434232     -0.05511672203335     -0.25628516479923
  N   5.03731716561415     -1.14213808716657     -0.68432090415878
  C   3.72943026006656     -1.11281578290950     -0.68039860676836
  H   7.44680284282012      4.43509707256448     -0.02828606417031
  H   8.63808852418916     -1.34005625713083     -0.90415454606661
  H   6.54714698958501     -2.61602970686865      0.72013042896371
  H   3.20241041146427     -1.97986679601034     -1.06253459554767
