21
Coordinates from ORCA-job 19817optt
  Br  0.97243051359599     -0.18877144755528     -0.23269559023981
  C   2.83030926652427      0.07272037653707     -0.06969354539508
  C   3.45571708199670      1.25123922957817     -0.17754665982180
  Br  2.50144018607907      2.83144277467249     -0.53804526351956
  C   4.91296694223581      1.31645138336096     -0.09862662827556
  C   5.65784869795455      2.47025150248905     -0.14254047991348
  Br  5.30000915878780      4.08166034469892      1.44026551862681
  O   7.01123990114223      2.38685134943611     -0.22784913052992
  C   7.74879518434923      1.23295041087293     -0.16533288337723
  N   9.01389170664204      1.27883418029562     -0.23533447018023
  C   6.99087677168727     -0.00869948674250     -0.04063977803710
  C   5.60069350435385      0.06217127399145     -0.01824194319763
  C   4.90595375572810     -1.15803466441903      0.10693087254803
  N   3.51268161317900     -1.11850915248288      0.20556791923541
  C   5.62148976086676     -2.33247775388755      0.17746832816735
  N   6.96635126358237     -2.39319888017119      0.14655650124394
  C   7.62341457270185     -1.25540508054023      0.04776271332739
  H   9.31384230278704      2.24893290374597     -0.31099327765406
  H   3.01164603694339     -1.96998841443981      0.01388440089050
  H   5.09726531123872     -3.27913535641687      0.27798143507515
  H   8.70613646762374     -1.29328549302338      0.03312196102690
