23
Coordinates from ORCA-job 19822optt
  Br  0.59254138952460      0.08590621068499      0.30943435205605
  C   3.10610009829830      0.05294347618175     -0.03374967579581
  C   3.93634152918525     -0.98437760091515     -0.40351811805978
  Br  3.21575868225897     -2.71602474667078     -0.85097049971373
  C   5.29900502807378     -0.79732221028457     -0.46602460815506
  C   5.87061374506791      0.44582719247407     -0.15961283125786
  C   7.35198654610810      0.18774595148435     -0.36838717772212
  C   7.49127310136818     -1.20363217756198      0.32259902341215
  C   6.51616710305084     -1.63302429474836     -0.81703138977206
  C   7.30734775972742     -0.61963781999972     -1.70204064232594
  C   5.05867445303892      1.48969452546612      0.20560195689944
  C   3.66696150776030      1.26381408537719      0.26346809589371
  S   2.82832440441386      2.74324745072228      0.74214418292910
  C   4.35876785507033      3.64050207851893      0.84182498934951
  O   4.48852230992120      4.80953722160613      1.13144317280708
  N   5.39798754181790      2.79393781683714      0.53624186773571
  H   8.06431298122643      0.99235859158966     -0.19979469478958
  H   7.13435915933943     -1.29323626233054      1.34754440679654
  H   8.48769825947639     -1.63280432243330      0.20505627844776
  H   6.36355143943355     -2.66888978941736     -1.10193161346428
  H   6.78046380389548     -0.16985454603795     -2.54210900070138
  H   8.28743617599990     -0.99686741287126     -1.99817514031818
  H   6.33780512594278      3.15515658232837      0.54098706574873
