26
Coordinates from ORCA-job 19825optt
  Br  0.93797593960127     -0.96844108619402      1.13346290387847
  C   3.09910977590250      0.15575472863119      0.71752359194546
  C   3.91240040628469      0.77085716684007      1.62556792839305
  Br  3.23495463362964      1.59475700113245      3.19019995769445
  C   5.27670752809862      0.77129131521992      1.32942901050577
  C   5.81274737837875      0.19249901621881      0.20957434553918
  C   7.29968125646977      0.31400129567168      0.26771773766031
  C   8.03426887401534      0.98058359168327     -0.90081742245482
  C   7.44212492700224      2.33569822225365     -1.32233461816481
  C   6.45326138004513      2.21073795868597     -2.44220512360861
  C   6.50445062818375      2.91659780763687     -3.56305856793175
  C   7.46890460970971      1.12489655062223      1.55000996886813
  O   8.46728985034707      1.55523067619088      2.03510351840687
  O   6.24333495719561      1.33724517155710      2.13088164651103
  C   4.98429364868289     -0.46304164727200     -0.74189705655101
  O   5.33898468188423     -1.01031937467709     -1.78448425563589
  N   3.63068941801207     -0.41108093133113     -0.37770807664330
  H   7.76896035167982     -0.66030733886826      0.44763347151134
  H   8.02095423064119      0.29376404415908     -1.74810155172627
  H   9.07257876511033      1.11113575422271     -0.58970734438276
  H   8.24130033897057      3.01276983895775     -1.63052225729730
  H   6.95436186893950      2.80300619808042     -0.45858158304029
  H   5.67488424402237      1.46360784303080     -2.31793548746916
  H   7.28071427198041      3.65652926995722     -3.73014274628927
  H   5.77218192228212      2.78030347669954     -4.34857443701803
  H   2.99488411292995     -0.89707654910916     -1.00103355270072
