23
Coordinates from ORCA-job 19826optt
  Br  1.94110648623569      1.16150742994957     -0.20860420635732
  C   3.65474121185983      0.39723358761218     -0.15695805607218
  C   3.92692110065197     -0.92504423561589     -0.06757343169912
  Br  2.55235195501300     -2.21631249710177     -0.01376882507145
  C   5.28045529272053     -1.35633611099571     -0.01766481711080
  C   5.93556901899103     -2.54123122624023      0.07789850634216
  C   7.36960986552985     -2.32571539309704      0.07500359477389
  C   8.31996362488572     -3.33759061430258      0.16820331439100
  C   9.71408521133490     -3.13257374693826      0.17184590719909
  C   10.43629226975238     -1.97803004808285      0.08299713870028
  C   9.99977635040961     -0.57882074409023     -0.05260953863375
  N   10.95501523728452      0.28948506329300     -0.14301219478395
  N   8.68690498989477     -0.13914103461782     -0.08728842899630
  C   7.61765220384321     -0.90959663840713     -0.03150803405852
  C   6.29288835660514     -0.29591728629049     -0.08664929589557
  C   5.92732899957179      0.98237983510182     -0.17780077570912
  O   4.60833375133944      1.35559328443015     -0.21447689180190
  H   5.47146529670526     -3.51582581073710      0.15109655342534
  H   7.96180198387599     -4.35830931454127      0.24665154506489
  H   10.31006651559627     -4.03826825243898      0.25569234785458
  H   11.51578972110519     -2.05958314333650      0.10255311131634
  H   10.51424561987590      1.20521375257604     -0.22969655034038
  H   6.59263493691693      1.82988314387128     -0.22733097253718
