24
Coordinates from ORCA-job 19828optt
  Br  1.69629646118146      0.59132044698756     -2.60309331955657
  C   2.57439196642248      0.01307188471025     -0.98309515421341
  C   3.17381789473213     -1.22533603215826     -0.89639213523155
  Br  2.51616264049144     -2.68386685442592     -1.97477534635287
  C   4.22043111628622     -1.48513161539208     -0.01753406932286
  C   4.92591016421292     -0.45840380040709      0.70298523278874
  C   6.10113835804212     -1.14276799724518      1.31963625148886
  C   5.69649419595692     -2.19308221749104      2.39991603772030
  C   6.49739258082763     -3.28551880878985      1.73698828566587
  C   5.69563582153649     -3.57279893219569      0.39848726622964
  O   4.45712020335146     -2.84847659883880      0.24184660538779
  N   7.79839406184731     -2.57537054209696      1.54992808992600
  C   7.60385672630341     -1.16312036656653      1.55342332241022
  O   8.48436080591451     -0.35703820113957      1.65592414851145
  C   4.50223952048315      0.86005789891253      0.90698227284340
  O   5.03384608622971      1.74896934176070      1.55283471237810
  S   2.88410473501431      1.29015718224084      0.14272099110296
  H   6.28628525535882     -1.72787825831336      0.42758572536589
  H   4.62737617106418     -2.36174110327776      2.44868638160858
  H   6.08256665690315     -1.92387850565460      3.38461362121880
  H   6.67115824137583     -4.20979332453353      2.29010706695749
  H   5.35790089795398     -4.60910559071358      0.39980452526635
  H   6.34557332271661     -3.43149713175549     -0.47081872397356
  H   8.60954611579364     -2.91777087361656      2.04123821178035
