22
Coordinates from ORCA-job 19839optt
  Br  0.74431781528074     -1.04213367481673      0.42037914237257
  C   2.57770827836949     -0.56251580601337      0.37117168455285
  C   3.55755229835480     -1.37828340575231     -0.09176060630236
  Br  3.09980399950342     -3.12380336761478     -0.69101262958307
  C   4.94404700492167     -1.01930895366554     -0.13959017511258
  C   5.38698396794467      0.27905946664796      0.26117933729653
  C   6.83080462139193      0.62249567498908      0.00966791084339
  C   7.58401993888432      1.42396303378470      1.08297816127215
  N   8.93875455230201      0.88040846432452      0.93861072117376
  C   8.88846710645496     -0.42169578634567      0.47629850947982
  O   9.77805484731021     -1.24669397854685      0.51785783837142
  N   7.62951902899943     -0.59596478364703     -0.04277259640213
  C   7.08850668783650     -1.78346922460435     -0.49447071435905
  N   5.82052363720754     -1.98237988122041     -0.57279539597095
  C   4.60379686459451      1.33271115115187      0.72644359644065
  O   4.97121435200655      2.47942888982338      1.00222634181152
  S   2.82416941480742      1.05026293067212      0.98313604903358
  H   6.94051964344382      1.15088345313216     -0.94922540309572
  H   7.16278034121171      1.22296465458351      2.07177428700148
  H   7.54599723976184      2.49067563047843      0.89114711307189
  H   9.63960161378446      1.05790860613828      1.63920966339789
  H   7.80185674562792     -2.55651309349896     -0.74945283529366
