20
Coordinates from ORCA-job 19833optt
  Br  1.12440338765940     -0.53910938900665      0.44118972904538
  C   2.93680333448103     -0.07461950605074      0.25126807034120
  C   3.42765867231690      1.17088716181588      0.24437726404506
  Br  2.27187653221284      2.65094737849061      0.44443380894794
  C   4.85967116713458      1.40604147553792      0.08052288000063
  C   5.45907746410195      2.63763666384909      0.06797337802477
  C   6.86084433776203      2.73608438592170     -0.10375539814863
  C   7.70468047963199      3.84381086399976     -0.15243417311865
  C   9.07798961947982      3.53537606957395     -0.34166054308486
  N   10.14566877786237      4.26102373135489     -0.43392633194012
  S   9.26301290159124      1.75379513223329     -0.46185201325034
  C   7.54880129452487      1.48870451787360     -0.25749836459995
  N   7.01763451826975      0.29682441727680     -0.25284864437685
  C   5.66688919928573      0.21373654421714     -0.08082241721749
  C   5.05148818522032     -1.01477549454178     -0.05729640677863
  Br  5.91679546077589     -2.64849106195230     -0.27052637326386
  O   3.68162882555718     -1.18453253985460      0.11909861222873
  H   4.86419082408538      3.53391454353900      0.18569010207794
  H   7.37266760537653      4.86960776222805     -0.05740688515331
  H   9.88221741267015      5.24213734349439     -0.34752629377895
