20
Coordinates from ORCA-job 19846optt
  Br  1.33891726278295      1.09331090002415     -0.48187882836447
  C   3.14835908603181      0.54172629003989     -0.46612186063169
  C   4.07912917870082      1.00491784845295      0.39383023347199
  Br  3.57082760612054      2.25012136254144      1.73428808438793
  C   5.44139118822906      0.58539008540942      0.33264032652296
  C   5.91945511729547     -0.40766906619577     -0.54511419736805
  C   7.34442285532547     -0.54043017333786     -0.34198433656523
  C   7.72407658536795      0.33011607309099      0.62787139429413
  O   8.98435446944467      0.53508256903038      1.13650790451250
  C   9.90972961108697     -0.40946781010897      0.83878456816249
  C   9.82861487782144     -1.34464425430867     -0.10107700467679
  S   8.47956017217268     -1.56635169591494     -1.21320464537194
  C   6.58051210630439      1.08701587123383      1.12420726695295
  O   6.61646537253421      1.95488894570359      2.00234996111950
  C   5.12075163909408     -1.18707461681017     -1.44933076921515
  N   5.40365699993554     -2.21796058933648     -2.15253506447705
  S   3.44218479011539     -0.63907064086994     -1.71126372987715
  H   10.77646142331449     -0.33141071989888      1.48192645841002
  H   10.64175148794583     -2.04612129453370     -0.21343703531416
  H   6.36237817037615     -2.51936908421127     -2.00045872597276
