20
Coordinates from ORCA-job 19848optt
  Br  0.82893419134991      0.08979867635478     -0.09128953078618
  C   2.71742039079226     -0.00786899793508     -0.05851836596780
  C   3.40958279613371     -1.21911853841808     -0.09909130798993
  Br  2.45097554480602     -2.85054464926394     -0.28575528670050
  C   4.80080875436377     -1.25769707375149     -0.05454381089440
  C   5.57326249495770     -0.07759377440034      0.00930009930349
  C   4.88344985107971      1.18645740669386      0.09362211299418
  C   5.39262892740348      2.45572856097553      0.25504350032076
  S   4.16481550561387      3.65055125902139      0.35861722596807
  C   2.92358410670631      2.48673905621637      0.18811723865031
  C   3.43028572385832      1.21185758634388      0.06371346077431
  C   7.01071224080602     -0.10742744077215     -0.08880919807077
  N   7.81783276297118      0.77878083305293     -0.50760467071065
  O   7.68668932875768     -1.23960205729395      0.40269153684223
  C   7.24176881942912     -2.49220705813631      0.34233802872415
  O   7.96524096062293     -3.41097584426078      0.60539954807787
  S   5.58783244587298     -2.83170263655547     -0.16542464111445
  H   6.41848834522025      2.75017559477411      0.39514536615420
  H   1.88669359318667      2.77484705142153      0.19422769917017
  H   7.28899321606806      1.55380204593320     -0.89417900474507
