22
Coordinates from ORCA-job 19843opt
  Br  0.69753240153316     -0.09990754231893     -0.73731401018438
  C   3.07164768277276     -0.02998477392539      0.04471870812542
  C   3.84326886427863      1.07880149063279      0.02197998024360
  Br  3.08431305273969      2.83021680279213      0.07062775635118
  C   5.25130443686309      0.96914894161770     -0.02043135393992
  C   5.87807019522853     -0.27040046894406     -0.05757654971071
  C   7.29395473627755     -0.01117259004423     -0.09157324308878
  C   8.55436087158881     -0.51183976433852     -0.13516235541987
  O   9.45078013426123      0.50931313457191     -0.13942284779570
  C   8.77043577199282      1.69496500733571     -0.09975677701006
  C   7.44372049626886      1.42009812334273     -0.06928015224059
  N   6.18886567541770      1.99095942834843     -0.02426723230220
  C   5.08212502217953     -1.43667587494866     -0.05011391131681
  N   5.39469528361776     -2.71555481685289     -0.07898703490295
  C   4.18981923836909     -3.37115043076002     -0.05107511072458
  C   3.13610202373558     -2.50797995216752     -0.00188847148422
  N   3.69554709237502     -1.24379331735478     -0.00028411243641
  H   8.96162811888958     -1.50530041600393     -0.16945716509806
  H   9.36583517017426      2.58894125276848     -0.09991292150247
  H   5.94504047388971      2.96455594877366     -0.00630193481947
  H   4.14475734139435     -4.44872354543072     -0.07257290958518
  H   2.06819591615181     -2.62951663709390      0.00805164884214
