18
Coordinates from ORCA-job 19857optt
  Br  1.08593089816039     -0.40731459665281      0.43358364286613
  C   2.90650236846738     -0.04911281831064      0.17129260622625
  C   3.50818684606375      1.14653523996739      0.22751711103646
  Br  2.46312912812081      2.68098336453626      0.56279091072889
  C   4.94638629428643      1.29517362415476      0.05183649508482
  C   5.57579894005154      2.52311343950613      0.02842389482955
  C   6.95799281410773      2.68715279831374     -0.09278828089383
  N   7.66721888991534      3.80986981709077     -0.13711976431050
  C   8.98919277014557      3.40293080480616     -0.24060395513461
  O   9.96480870915096      4.12423282061089     -0.31200553533950
  N   9.10430657766847      1.94933299113163     -0.25544921416837
  C   7.88436488251576      1.56541467530942     -0.16911328722173
  S   7.40587962624871     -0.10619360620886     -0.11324889489569
  C   5.64906065800911      0.02012588104138     -0.05753291584041
  C   4.94669205699066     -1.12709451919380     -0.10825499055629
  Br  5.69000412533179     -2.84274498790154     -0.19813240169769
  O   3.57284039245186     -1.20731843455984     -0.09197348405326
  H   4.97870402231363      3.41991350635891      0.11577806333979
