23
Coordinates from ORCA-job 19854optt
  Br  0.65137994514348     -0.02039257159740      0.58062091024330
  C   3.07899137589069      0.07021966331811     -0.10691470846851
  C   3.85427474584130      1.17027052912862     -0.09100550686113
  Br  3.10816866816284      2.92862023280920     -0.11799431108981
  C   5.26803220042620      1.05979560455743     -0.06425502761673
  C   5.88601715651668     -0.19443530343145     -0.04255789594699
  C   5.07744254618382     -1.35500020966041     -0.04967526252412
  N   5.38727966113365     -2.63655877532350     -0.03428150030809
  C   4.17828920557059     -3.28624206025491     -0.05037057800787
  C   3.13042752213983     -2.41377143497527     -0.07785825624234
  N   3.69785179749865     -1.15399103085910     -0.07824867375821
  C   7.27894436044336      0.07999490770206     -0.01540499532935
  C   7.46626747666996      1.45306953965311     -0.02291501879575
  N   6.22018981033291      2.05207469204206     -0.05534787070510
  C   8.85960314094823      1.71554957754328      0.00715702680181
  C   9.46546766970648      0.47617941297327      0.03223121634082
  N   8.50976664880952     -0.51143461096388      0.01787271604940
  H   4.12558607610833     -4.36355875887704     -0.03731099821876
  H   2.06146640248237     -2.52791609141364     -0.07730100121469
  H   5.99781518558563      3.03125427337860     -0.06382635796795
  H   9.37400731362789      2.66157348213024      0.01115790939902
  H   10.51281861076032      0.22812576633733      0.05968593190586
  H   8.67391248001669     -1.50142683421669      0.03554225231521
