24
Coordinates from ORCA-job 19861optt
  Br  1.41864283049568      0.77601252335752     -1.07914958672958
  C   3.00017222518511      0.24574157211560     -0.08733961494769
  C   3.90834471938787      1.18930702830870      0.35560790694376
  Br  3.31735765790080      2.96732624324344      0.81507256484259
  C   5.24908257243812      0.88994383461305      0.52409876446922
  C   5.87936525050363     -0.28563419932758      0.07963929156564
  C   7.34550232900294     -0.06557397805480      0.30659196226208
  O   7.84915119941626      0.96463523200846     -0.57891017000255
  C   7.20508479855128      2.17588489091763     -0.17481589942849
  C   6.35587204012106      1.77164003528198      1.05369803683298
  C   7.27971565196813      0.68752696748909      1.63383059441375
  O   8.57793166809213      1.17260255487641      2.01771030674778
  C   8.64757661276901      1.81773498531560      3.17153699586761
  O   7.74126355629671      2.03619731254879      3.92352486281850
  C   5.24162386479428     -1.41974215306351     -0.47687234695779
  N   5.71925220800031     -2.49028638414150     -1.00715430160827
  S   3.44383204178733     -1.42463712808768     -0.29184043129294
  H   8.00826935239018     -0.92473482816664      0.24692820863088
  H   6.57573280808713      2.56115600607482     -0.97863889063295
  H   7.97069805840273      2.91297168830299      0.08263184477368
  H   6.06586173302046      2.58316445879657      1.71245963807891
  H   6.83673271462227      0.13124872487108      2.45459374849162
  H   9.68422810334379      2.13170230457491      3.35490286879294
  H   6.73770600342266     -2.43918769185497     -1.02410635393168
