23
Coordinates from ORCA-job 19875optt
  Br  1.40567750273048     -2.02554638560746      0.92669036628959
  C   3.27316703470036     -1.77087620516011      1.17425225674964
  C   4.11643722296035     -2.82525669906875      1.61133698470789
  Br  3.43038877674825     -4.54069340283036      2.05309021856701
  C   5.47044848101709     -2.58321100115043      1.74662372474740
  C   5.99546691863242     -1.32246284869518      1.47058601191142
  C   5.16931999675218     -0.28030066569699      1.03258542349062
  C   3.80307058187303     -0.52914860601531      0.88927810761662
  C   7.45999846739875     -1.25127747877415      1.69991833226894
  N   8.27656626663993     -0.83004509625102      0.52021645366820
  C   9.12251944793497      0.00690610852203      0.94610801979847
  N   8.99502803725101      0.38296030382382      2.28328192010811
  C   7.91945777925553     -0.29052023215742      2.82656305859489
  O   7.50753662321921     -0.16951441531668      3.95142549255048
  C   7.79132498869602     -2.68958508855478      2.11115660570685
  O   8.93011849019472     -3.07354326469168      2.37329045489183
  C   6.53697812770985     -3.53162037561612      2.17796003948673
  H   5.57784726390798      0.69532235010755      0.80425434613010
  H   3.13825935243669      0.25294274316654      0.54662387030489
  H   9.90604228785242      0.45423374362708      0.34356270309572
  H   9.60525960076473      0.98921969268497      2.80363722181135
  H   6.36154219971623     -3.91644346749437      3.19169293209759
  H   6.59854455160767     -4.41153970885114      1.52286545540564
