27
Coordinates from ORCA-job 19871optt
  Br  1.02025863123303     -0.46479216664707     -0.75879153432171
  C   2.88129249035269     -0.21540667282183     -0.47820802855823
  C   3.41765578307681      1.03628189578654     -0.20553760434548
  Br  2.34490028796865      2.59460491956219     -0.09507707611664
  C   4.79162935429027      1.15541127703585     -0.01354194580173
  C   5.61042746150092      0.03400251483215     -0.08497556384273
  C   5.07276416807776     -1.21843602834793     -0.35308956690672
  C   3.70245632738019     -1.33483573229350     -0.55661396325616
  C   7.05925043305526      0.40655644397717      0.12603824306086
  C   7.84606505890940     -0.36745222711091      1.20215289495048
  N   7.53362256657398      0.38140653097195      2.41349721698130
  C   6.97301926589089      1.59021930236222      2.21856668131275
  N   6.51933558312604      2.45151667662430      3.05324438672396
  C   6.93888040127457      1.83650256848175      0.70961906165246
  C   5.58669348470379      2.40181574622453      0.26788356000560
  C   7.57638555823513     -1.83435914078874      1.44531358069833
  O   7.95919327942208     -2.31275852421280      2.56841329828311
  H   5.70738721642109     -2.09055260548810     -0.39850879282556
  H   3.25621278718379     -2.29796268382677     -0.76119742870338
  H   7.58749165840839      0.37684373988607     -0.83045919237765
  H   8.92130442609447     -0.20939152751828      0.98075624244575
  H   7.54431772885798     -0.13931149901706      3.27979390943556
  H   6.63003134661397      2.11660647902091      4.00865593155287
  H   7.77546599513591      2.48374841657523      0.44268205813618
  H   5.66702675717966      3.00967917919301     -0.63885021720409
  H   5.14908512245480      3.01948076352388      1.05255146054141
  H   7.57784682657824     -2.46341764598476      0.53368238847948
