23
Coordinates from ORCA-job 19877optt
  Br  0.66836095917529      0.00549401522693     -0.82885218738892
  C   2.88794729784365      0.06910602899776      0.23245852843669
  C   3.57416275805578     -1.10991032095100      0.31776965001209
  Br  2.61114090133222     -2.76269665715448      0.62361661995625
  C   4.96407186002185     -1.19268632041109      0.22564299303944
  C   5.67362636855596      0.00857608841239      0.02079823480942
  C   4.99274493180035      1.21615105121739     -0.04946873953770
  C   3.60321870851121      1.26194452368329      0.05533541511956
  C   2.94194351113373      2.53197261127452     -0.00990507491943
  C   2.42242484809213      3.61363641083178     -0.06433192640749
  C   7.12282899648945     -0.10265501534945     -0.06670040165771
  C   7.71940092706762     -1.32494627445198     -0.17544852399211
  C   6.92373991774205     -2.58699777516189     -0.28131377341744
  N   5.66692965395053     -2.37926317131203      0.41460607926317
  S   9.41575066898464     -1.14259100307788     -0.27690572167677
  C   9.20849857107950      0.56646229758698     -0.15832717337943
  N   7.98786374459674      0.96887343391664     -0.05389707755641
  H   5.55996879194738      2.12961244007509     -0.17989819882409
  H   1.92312393743634      4.54914703635001     -0.12249259646296
  H   7.44376912393394     -3.42436828567015      0.18686884534908
  H   6.77622477602342     -2.84154299692050     -1.34383938290008
  H   5.06314994114470     -3.18865378650510      0.43742401478919
  H   10.06510880508123      1.22533566939280     -0.16513960265434
