23
Coordinates from ORCA-job 19889optt
  Br  0.92206375717468      0.26364322011484     -0.06996859272401
  C   2.82988648729833      0.16908596693038     -0.03444224548465
  C   3.56475222776722      1.32207053246943     -0.02218784788978
  Br  2.74221353057769      3.03214338725534     -0.02810660333289
  C   5.00348730782079      1.30108419710211     -0.00543673974140
  C   5.61557077253151      0.00216108161526     -0.00297469845149
  C   4.85685264493227     -1.14105162269192     -0.01071118780280
  C   3.44009724398296     -1.12200810698073     -0.02495670048951
  C   2.73058749797480     -2.36797731959680     -0.02698481231969
  O   3.26867979588679     -3.48376769686092     -0.01683838654447
  C   7.06471058706045      0.01210962126123      0.00767858250127
  C   8.01153032344066     -0.98668198605885      0.00972747205166
  N   9.24093596110619     -0.38548202066523      0.01873737928364
  C   9.11497681328425      0.97751823045860      0.02303516669767
  C   7.76139089995502      1.26160638520075      0.01613751012883
  C   7.00163446288385      2.47238364215560      0.01552456927606
  N   5.68973428536701      2.46269883303583      0.00472890430215
  H   5.32521938735291     -2.11816434788034     -0.00570089365380
  H   1.63339122758881     -2.30080721400471     -0.03736319810440
  H   7.91477568242950     -2.05886555023515      0.00449847307437
  H   10.11473203716753     -0.87886035678481      0.02124701414018
  H   9.97959647876955      1.61899552528900      0.02957094321041
  H   7.49518058764720      3.43916559887110      0.02378589187266
