28
Coordinates from ORCA-job 19888optt
  Br  1.01198557769027     -0.20055514175586     -0.21229248462669
  C   2.91459639132235     -0.15005345815394     -0.11032153995455
  C   3.65043034950025     -1.31584958425376     -0.19344755981908
  Br  2.77427847239878     -3.00557873039846     -0.41261120163364
  C   5.05083405891964     -1.31217889901975     -0.14691007029075
  C   5.68780167964304     -0.05481250390334     -0.06053100794998
  C   4.97994242910848      1.10754067246544      0.03443721252464
  C   3.54947440398096      1.12294477161130      0.03735486383311
  C   2.88401662736912      2.37741644010520      0.16875879366301
  O   3.47568534845382      3.47296118037573      0.28051797307410
  C   7.18931795736703     -0.12237461663543     -0.11834443336420
  C   7.71778639594952     -1.10332465997094      0.94298348606321
  N   6.97040685494095     -2.37732181497360      0.96951454633072
  C   5.97297894032034     -2.50487252231124     -0.10955996235124
  C   6.71048257146030     -2.76056201753377     -1.43336458495270
  O   7.86981254860974     -1.97374181171234     -1.61277590294397
  C   7.67570893752063     -0.57859194913182     -1.51117074962600
  H   5.47472088656529      2.06909421556824      0.10647648565459
  H   1.78536757977658      2.35415877916266      0.16791120622150
  H   7.60333480518246      0.87048326084843      0.07225284019936
  H   7.64697948270617     -0.62840593711421      1.92346353702804
  H   8.77309376401134     -1.30915099307422      0.74355180698881
  H   6.45601972995395     -2.42342153104151      1.83923797823997
  H   5.39356579690403     -3.40505762250366      0.09404022631938
  H   6.00771471685759     -2.60565246327922     -2.26236174017096
  H   7.06700688988216     -3.79118099830478     -1.45402651944322
  H   6.97210289991307     -0.23038562023315     -2.27748419556099
  H   8.65755390369207     -0.14752644483200     -1.71629900345248
