26
Coordinates from ORCA-job 19882optt
  Br  0.62748287737644      0.11576219358633      0.80714648243302
  C   3.00410235360067      0.22284646294655     -0.15949830840502
  C   3.76433076654498      1.35249898211960     -0.12030283923053
  Br  2.88111324612759      3.06736701738663     -0.10414161217456
  C   5.16509513893187      1.32675885076202     -0.12641630133008
  C   5.77309507290088      0.07611352438807     -0.20393174890555
  C   5.00542241236031     -1.09006925447649     -0.25332810566430
  C   3.62148436961528     -1.02126751479947     -0.21729347874618
  C   2.73967383420734     -2.25446257943455     -0.22453855033252
  C   3.44078011512060     -3.49346835182293     -0.54975154345386
  N   3.99170489180897     -4.46631798002258     -0.80637492701320
  C   7.28340247569118     -0.05405792164720     -0.26559034900510
  O   7.98248151064890      1.17368644787141     -0.33207795344956
  C   7.40438696423438      2.21954880910793      0.43126559100258
  C   6.01790972931035      2.56442362903928     -0.06686235863081
  C   7.78856548492470     -0.82628872741338      0.94024329266104
  O   8.10044107351074     -1.98365011779578      0.92006479912094
  H   5.50720350783751     -2.05137151763763     -0.32635273023084
  H   1.92190036636243     -2.11225129300640     -0.93227115017768
  H   2.25867087003680     -2.35703875150375      0.75125477813323
  H   7.56882366472237     -0.62205841991781     -1.15319701728096
  H   8.08770168672202      3.06311875504990      0.33691714025253
  H   7.35547483690432      1.93827236354289      1.48997353026208
  H   6.07929527905645      3.02641075679858     -1.05657207783130
  H   5.56252724159540      3.29997243404522      0.59747821827867
  H   7.86293022984712     -0.23147779716647      1.87215721971794
