23
Coordinates from ORCA-job 19891optt
  Br  1.08276370592153      0.12964026272302     -0.08129367549374
  C   2.97965578536670      0.01381531646502     -0.15299732653974
  C   3.76227132509817      1.15363664943297     -0.04795595028317
  Br  2.95769268156481      2.86268351317698      0.24433792083357
  C   5.14685833846884      1.12606362361633     -0.13323384766654
  C   5.77481704050278     -0.19115804119202     -0.38382690826595
  C   4.99384285511072     -1.30677710206359     -0.45746033829061
  C   3.58806361400549     -1.26958046981307     -0.33676778123720
  C   2.87191397208426     -2.51654475866858     -0.44243808860367
  O   3.39652186034959     -3.61713108964771     -0.60754956952134
  C   7.25435331179966     -0.28818647090873     -0.72180049253602
  O   7.89491056914691     -1.26536801979923     -0.98946691524127
  C   7.59140474535929      1.23760384146028     -0.72713394721223
  C   7.93229506880316      2.69204651499756     -1.09142380521648
  O   6.65189451246136      3.23544355108507     -0.64608915824954
  C   6.08880170209973      2.25680093680984      0.32462310530013
  O   7.22085624771131      1.53528499782062      0.64265435739619
  H   5.45045714968563     -2.27112039805189     -0.65105116753889
  H   1.77569218399244     -2.44867170444633     -0.36757285087508
  H   6.70977901942979      1.34050403817743     -1.37616989153507
  H   8.02937147723115      2.87946737560792     -2.15841655316740
  H   8.75156910213139      3.13107896329031     -0.52361956046550
  H   5.69721373167523      2.84746846992779      1.14965244440958
