23
Coordinates from ORCA-job 19899optt
  Br  1.08662880029589      0.08459607304412      0.74434230157171
  C   2.84544553797008      0.06686435156145     -0.17166480384746
  C   3.62882360840138      1.24089254490339     -0.12207874128525
  Br  2.77122078042095      2.94489397305867     -0.33981868982180
  C   5.00570097321140      1.20223041694477     -0.07235947599813
  C   5.66294088169168     -0.05249605807868     -0.06898480589532
  C   4.88806429774085     -1.23398650575362     -0.19793379189137
  C   3.52131086296118     -1.18044992166996     -0.19604044257038
  N   2.74760762010547     -2.36244918691301     -0.26128387953267
  C   3.04942914370792     -3.53715720059972      0.33394279197788
  O   2.36572685119297     -4.53862953848125      0.26723690259138
  C   7.08929765523552     -0.11145423826905     -0.03667013801672
  O   7.78894139485522     -1.11984902045411     -0.05535445576357
  N   7.73550861537139      1.13950147289627      0.01161922322282
  C   7.14808820298842      2.38280248723419     -0.02862501155267
  N   7.75322168761953      3.51335942596654     -0.02153228211054
  N   5.77991210978721      2.35170546212814     -0.07645441101045
  H   5.41506212140879     -2.16777500006639     -0.34523042667214
  H   1.82078831976325     -2.29036195754799     -0.65821396493708
  H   3.99229161779276     -3.50019089781931      0.89936465837459
  H   8.74164744693135      1.08995955676205      0.02339253973092
  H   8.75865707475863      3.38298080107800      0.01603386756130
  H   5.32668439578806      3.25201296007547     -0.09768696412506
