20
Coordinates from ORCA-job 19894optt
  Br  1.35748811415587      0.38553318975907     -0.09951740470381
  C   3.26339777235289      0.10536229564824     -0.00204070276419
  C   4.09347228856676      1.16724254565197      0.27986059458914
  Br  3.54293401714769      3.47716787983279     -0.35278532553430
  C   5.41795723870929      0.82823847730251      0.33888958432013
  C   5.90171749674280     -0.47028629738522      0.14419312088000
  C   5.04879578044662     -1.51986026789403     -0.14030426579663
  C   3.69671692109591     -1.20598090489607     -0.20841310951989
  N   7.27926757632545     -0.35108088521837      0.31329408969859
  N   8.41002468312080     -1.09686428762009      0.31314047604453
  C   9.29150870240394     -0.16230101448742      0.59214582833644
  O   10.61606069515889     -0.48638836504957      0.73322823836637
  C   11.39746462700013     -0.32573550829909     -0.35516227480962
  O   11.04053609482286      0.04092841812313     -1.42598117706225
  N   8.86218326896189      1.10433173557379      0.77900157791925
  C   7.57152743601634      0.92810281650300      0.58888182077415
  O   6.49301662914534      1.69602441228508      0.61949059501506
  H   5.41549352188556     -2.52333231507265     -0.29923707616367
  H   2.97286566891346     -1.98239933697939     -0.41780318626011
  H   12.42557146702728     -0.59570258777766     -0.08788140332918
