24
Coordinates from ORCA-job 19893optt
  Br  0.57978358338426      0.61086683071179      0.30357816984448
  C   3.07239170075725      0.22839649406383     -0.02612906792597
  C   3.99262450057946      1.21541807876300     -0.19032789725693
  Br  3.53397573250796      3.04729054838471     -0.57452440481200
  C   5.34405060546636      0.91386230902438     -0.10051207573627
  C   5.74298323115024     -0.40798291125846      0.14067757657318
  C   4.81660227450703     -1.42597540080055      0.31087408034161
  C   3.47124211996204     -1.08152476722617      0.22918739818358
  N   7.14207021771794     -0.37536952381780      0.15241905603213
  C   8.27694572172768     -1.15124444224474      0.29194593377027
  C   9.31777729425877     -0.27091282163111      0.15283418798143
  C   10.77967829875713     -0.57331543686785      0.18174045156906
  C   11.39505682810563     -0.45138376098523     -1.19121383484848
  O   12.21248025618684     -1.21297060756133     -1.63422031677366
  N   8.88086513113903      1.02003511076118     -0.07493764060074
  C   7.57446168627853      0.89788745865466     -0.06595451955371
  N   6.48213955698335      1.70426936084884     -0.21932020033534
  H   5.13459511992820     -2.44446630815316      0.49823546219848
  H   2.71108716856282     -1.84221498541889      0.36946369892876
  H   8.24826932610313     -2.21036156215938      0.47179552880757
  H   10.98699050887158     -1.56959593951504      0.57038126076213
  H   11.28252023159058      0.16218755803720      0.81984519661787
  H   11.03814372033669      0.41114691239349     -1.78407760787780
  H   6.48226518513693      2.69195780599664     -0.40176043588966
