26
Coordinates from ORCA-job 19901optt
  Br  1.25300117652088     -0.28416291239266     -0.15284082602799
  C   3.16291417863714     -0.14703035030570     -0.04242086406634
  C   3.80559894801852      1.04431981148041     -0.18954341060299
  Br  2.67098526794919      3.13477325238168     -1.22181150704664
  C   5.19297472915650      1.13148255174036     -0.11475514029542
  C   5.92647603766389     -0.03648642213338      0.09584066075749
  C   5.27044876254788     -1.25259309785076      0.27428504679240
  C   3.89600317963902     -1.30385821238303      0.21272758154431
  O   3.25508404251743     -2.51666962831721      0.48199658880461
  C   2.84826571136289     -3.25793144907328     -0.55606044512144
  O   3.08734691256965     -3.06661644407262     -1.70692334836705
  C   7.45537351665627     -0.01464456322876      0.09970932525041
  N   8.03689987536058      1.22785603760485     -0.40582479004106
  C   7.34711137822062      2.38921520193227      0.16379526672940
  C   5.88860286717857      2.46394666047476     -0.26150191635985
  C   7.98001099531456     -0.30744489864393      1.44485744631947
  C   8.39226995815038     -0.56072752278793      2.54122826751159
  H   5.82556430059551     -2.16351597280163      0.46570133523308
  H   2.26203301187542     -4.10276634101946     -0.17318861388753
  H   7.80177257838926     -0.82099340183050     -0.55358235310716
  H   7.90236921563437      1.23864232158967     -1.41235861310542
  H   7.88747835870665      3.29041099790623     -0.12990791857123
  H   7.42737211639182      2.30303831706112      1.25118266744533
  H   5.80778826597211      2.78630410524802     -1.30467631645719
  H   5.33878120837789      3.21313218132327      0.30996022148268
  H   8.75047340659286     -0.78168022190181      3.51711165518652
