24
Coordinates from ORCA-job 19904optt
  Br  0.96684135229116      0.00697744210703     -0.02270826589925
  C   2.87036006589311      0.09019860794799      0.02014810117447
  C   3.52600279440340      1.29581907140299      0.04150111496512
  Br  2.64794942613169      2.97841701437866     -0.04366368615705
  C   4.94231026142756      1.30537097365266      0.08038521244983
  C   5.64721940595309      0.04349650930318      0.03382220748791
  C   7.15948898674182      0.26818071607324      0.02844996661081
  C   7.21359715292940      1.76822019273644      0.10881090551574
  C   5.93117059871240      2.30876856972021      0.13377692439516
  N   6.16317398855820      3.63778352187755      0.18139793017022
  N   7.51575988218614      3.89738178117515      0.18411136449580
  N   8.12429096816638      2.74209022206910      0.13864266423464
  C   4.96459037019418     -1.13646692635787      0.00937365567206
  N   5.68959075422345     -2.34447418726008     -0.01406782666904
  C   5.20708249137931     -3.58182576286515     -0.30807117889275
  N   5.83964682391821     -4.69273377968328     -0.31236856046967
  C   3.53892747665745     -1.14600892288581      0.02612841120120
  H   7.62752073197441     -0.12002481173039     -0.88353244116646
  H   7.65384114333584     -0.21698105734754      0.87881315803255
  H   5.50854309065732      4.39809848656266      0.20736731318564
  H   6.67950768806486     -2.26939741520623      0.16629272902475
  H   4.15580120843762     -3.58206827398082     -0.58194000135922
  H   6.81523096858968     -4.55884998523550     -0.04172878985191
  H   2.96955236917325     -2.05297198645420      0.13905909184945
