24
Coordinates from ORCA-job 19900optt
  Br  1.22362747741167      3.24497006601499     -0.04969741401933
  C   3.02313644470440      2.51858093112705      0.12169477171283
  C   3.79058060482577      2.20405510119257     -0.95344606884515
  Br  3.10836575469945      2.22112517352273     -2.77122254804128
  C   5.18485546740979      1.91691955311016     -0.75421495213724
  C   5.46578755775310      1.25388317074666      0.49414591440769
  C   4.66228215686924      1.51735923598812      1.57846940682521
  C   3.53254568135050      2.36409785535070      1.42649760907636
  O   3.39682314027737      3.46334434853546      2.33756891242752
  C   4.02187013317840      4.54271769324704      1.76676342266150
  C   3.55424060043484      5.79185826876075      1.43231880647249
  C   4.51385621221745      6.36207210169946      0.53614932489828
  C   5.53485498913452      5.45893933619737      0.37452218043549
  N   5.25643434792359      4.39519701321458      1.20986926381512
  N   6.43105874510615      5.24439549165821     -0.74074938718157
  C   5.80147409114643      4.07995836969571     -1.33375778510658
  N   6.16882018414770      2.90552728306220     -1.01360505346869
  H   6.41697524483072      0.74720887218986      0.62977401910547
  H   4.96382629306967      1.20965560377833      2.57533379528238
  H   2.59414323696377      6.19383918967036      1.70634765324128
  H   4.41660162225168      7.28862139516399     -0.00573190406438
  H   5.71759222143421      3.50001742048592      1.13351943471122
  H   7.35675025258089      4.97989511296035     -0.41500684727688
  H   4.81449754027862      4.33576141262739     -1.71954255493174
