25
Coordinates from ORCA-job 19915optt
  Br  0.49607534717508      0.67050150236014      0.14542554859734
  C   2.93500568564872     -0.05736068160024     -0.05817307277500
  C   3.63575268906222     -1.20149781104045     -0.24564401590427
  Br  2.66342948594708     -2.84110980516381     -0.42368176426564
  C   5.05297682535206     -1.16394723227692     -0.31877691413432
  C   5.70451759438212      0.04186146824258     -0.21533061750360
  C   7.20442289908982      0.15956762117295     -0.29381663240164
  C   7.91123168270556     -0.78966611595672      0.62224173312565
  C   7.60192879704135     -2.06124165308207      1.04391541493376
  O   6.54373145994315     -2.83335965602479      0.67611106434757
  C   5.88275196490252     -2.41462263383416     -0.51079148877552
  C   8.59570450481700     -2.49204684956074      1.96042170596192
  C   9.49707313899919     -1.46515478413444      2.07341568168141
  N   9.08322721714126     -0.45263729722545      1.25868976905797
  C   4.97392318606475      1.27375709617816     -0.01735640074866
  O   5.47167363393423      2.39593038617038      0.08193225708312
  N   3.60029295028280      1.10108482256419      0.05199303692411
  H   7.45375963253731      1.18673933064828     -0.02045593175747
  H   7.54248741959119      0.02579584311199     -1.32951784325432
  H   5.25443054847079     -3.24935162654587     -0.80363734953896
  H   6.63389337032270     -2.24062194935098     -1.28986106054598
  H   8.62783886201978     -3.44291911765095      2.46469060211611
  H   10.39152879309187     -1.37827125430487      2.66564043518828
  H   9.51297747171416      0.45201246956123      1.18823689283279
  H   3.04636483976301      1.94055792774259      0.19132894975532
