25
Coordinates from ORCA-job 19914optt
  Br  1.21427729531068      0.32325844572966     -0.45075088003132
  C   3.08881120871524      0.26274561331400     -0.23822616112068
  C   3.91024491839675      1.38687710946142     -0.12039246076310
  Br  3.08930376161299      3.11311242994806     -0.20401695923930
  C   5.29027860838605      1.30427629518825      0.04815089101800
  C   5.91295100506459      0.01527668273234      0.08203921907582
  C   7.40159021962528     -0.14809571118378      0.27622483702217
  C   8.12282942781052      1.19738886363613      0.21801311914693
  C   7.97225124782829      1.85953798731584     -1.16623738564523
  O   6.89158172717176      2.77926508827731     -1.06613675997839
  C   6.20120724602209      2.49914624295109      0.16567937053766
  C   7.36618731753052      2.19027369410784      1.10502119965911
  C   5.09935528000426     -1.08100869516540     -0.03435285081237
  C   3.69942084080327     -1.00839621543332     -0.19359988179982
  N   3.21861642684851     -2.25288749006517     -0.26681893408206
  N   4.16536369415805     -3.13243209683312     -0.16916340304944
  O   5.44103522902523     -2.36733158201368     -0.01164748146857
  H   7.79998990125224     -0.82852907339690     -0.48305350458953
  H   7.59790690533320     -0.62624465573824      1.24332277150833
  H   9.17191366163047      1.08281415780206      0.49306616400287
  H   7.76127563042644      1.11193293186225     -1.93768575744525
  H   8.86591741060206      2.41920502171893     -1.45542751463372
  H   5.65221086030434      3.39874680702299      0.42432172523591
  H   7.04937650115091      1.75625565641984      2.05314334113535
  H   7.94610367498615      3.09681249234158      1.28652729631665
