24
Coordinates from ORCA-job 19938optt
  Br  0.85485169283237      0.13410620836899     -0.61577246118488
  C   2.71190699227344     -0.02715006504807     -0.15188376514077
  C   3.43453119999835      1.11921659464991      0.21466912036620
  Br  2.50038427971793      2.42944386711622      1.33163945742996
  C   4.86271424982388      1.21091587672532      0.22579198263968
  C   5.64418309725153      0.11175672436654      0.05178234506498
  C   7.14750215934925      0.12857745027178     -0.05427059576778
  C   7.72702107954725      1.50634172323580     -0.11003860186660
  C   6.99234332425835      2.57532103216355      0.14015926934640
  C   7.36032998794681      4.02016893921031     -0.04833710998051
  O   6.13737361746832      4.68175604284539     -0.35180496036755
  C   5.09005128697681      3.71193173334794     -0.47195139453197
  C   5.52180747434102      2.55400827327976      0.43555415937206
  S   5.01010022933715     -1.51296647116241     -0.05108879014035
  C   3.21945136830503     -1.32115437793620     -0.35963940638374
  O   2.65289457584582     -2.34333769034088     -0.71648442008327
  H   7.44970194428966     -0.42353046218165     -0.95210699103272
  H   7.57766319047120     -0.43657359728760      0.78375364164152
  H   8.76592508566087      1.60912483096353     -0.41062794049357
  H   8.08180767861970      4.15409095537690     -0.86025339455502
  H   7.77659654585260      4.46517311197030      0.86174321332574
  H   5.00654803546551      3.35913401769428     -1.50600484182115
  H   4.16060192617470      4.18684842899278     -0.17244128475964
  H   5.35770897819234      2.87979685337750      1.47061276892296
