24
Coordinates from ORCA-job 19935optt
  Br  1.06055222514231      0.20693804386673      0.03657516955741
  C   2.94640747042201      0.05613408784743     -0.07591148713911
  C   3.63133434149293     -1.10354478343198      0.01385913195588
  Br  2.68225221774574     -2.74246110304089      0.26666680853615
  C   5.05316567575750     -1.20337039239083     -0.03917585363501
  C   5.88820373427995     -2.33353058780442      0.02751744455551
  C   7.20813870341677     -1.88173661740418      0.09057805542993
  C   7.22850193236011     -0.47360618733452      0.06654719453195
  C   8.45108181819088      0.36262957456023      0.08778299098263
  C   8.61812641892902      1.46564542000045     -1.00688790939320
  C   8.50540829793789      2.46626216294745      0.13493822833232
  N   8.38937676230583      3.72154151716839      0.27974328335477
  N   8.50177679077173      1.47283944072389      1.07994713042049
  C   5.88707371159347     -0.02175472497945     -0.02260354120059
  C   5.37688774131228      1.28133120458682     -0.04462415500891
  S   3.69917079827162      1.61069365196751     -0.35942730838254
  H   5.55665325279824     -3.36000073455343      0.04516816050269
  H   8.08872025718861     -2.50943392100709      0.14379993468318
  H   9.32819086989033     -0.28135337582583      0.18082244681042
  H   7.78179714621351      1.51122687835828     -1.70211017175443
  H   9.56819088156482      1.47385544713798     -1.53948265097552
  H   8.42119997315783      4.17485215575433     -0.62933367965209
  H   7.97987694048793      1.50848391331532      1.94485252770227
  H   5.96591203876847      2.17635892953779      0.09675824978581
