25
Coordinates from ORCA-job 19947optt
  Br  0.90171405210938     -0.16934013209948      0.06018891399081
  C   2.80996980849371     -0.06831743739156      0.02903747563405
  C   3.54774135284358     -1.20150442504598      0.21701048970305
  Br  2.70602245894411     -2.88702502759127      0.50087177613139
  C   4.99209031925614     -1.17507452297923      0.21429569331524
  C   5.60749071544284      0.10563674713257     -0.00176111571116
  C   7.03315169657417      0.15556430843618     -0.00656006388911
  C   7.80306662391097     -0.96555326209677      0.17900898041271
  C   9.31187290030374     -0.85139394452479      0.07346006915796
  C   10.06027295584462     -1.73689817784778      0.96390871163016
  C   10.68325953862788     -2.46468036162745      1.68461676284298
  C   7.18796894877162     -2.20679136854568      0.39661148789889
  C   5.80229412998089     -2.29348964444961      0.41102404741552
  C   4.82868006695545      1.23867152559501     -0.19415955139753
  C   3.41361663376444      1.20512344783151     -0.19239629150437
  C   2.68601311317263      2.42006366832220     -0.41722401311050
  O   3.21670663943770      3.51996904989551     -0.61966197873974
  H   7.50463169103857      1.11940409745807     -0.17028026586402
  H   9.61118362812324      0.17994126462573      0.27203372518891
  H   9.61915387226865     -1.07164909388157     -0.95412509881105
  H   11.22552265866597     -3.10840905968119      2.33331668902355
  H   7.79292892456781     -3.08817997982030      0.56521681630469
  H   5.33862611121405     -3.25469411136273      0.58181470294370
  H   5.29446417365542      2.20198038790910     -0.36002200219795
  H   1.58955698603224      2.34464605173953     -0.40522596036816
