24
Coordinates from ORCA-job 19942optt
  Br  0.92284498701868      0.01809191044535      0.38294240636586
  C   2.81485567327367     -0.03262786533622      0.17980190349982
  C   3.57240695031207      1.13649440624400      0.04617087818539
  Br  2.72837655505461      2.83717412512521      0.02760410330902
  C   4.99437985446991      1.07701498898562     -0.07055082586571
  C   5.61920896753534     -0.22089615527744     -0.10227062352559
  C   7.01600351714113     -0.29803739401962     -0.26219582179422
  C   7.80159979424704      0.85025924801211     -0.35587488207498
  C   7.20534925009728      2.09673184493568     -0.30003666815670
  C   5.82120782071538      2.20995046051662     -0.16565688508300
  C   4.80207691264301     -1.37391121502102      0.03917410090026
  N   5.42333863238590     -2.63735024449179      0.12752837362881
  C   5.08777378831705     -3.72384135682001     -0.62450347929449
  N   4.19592024067996     -3.85768394357899     -1.52911662417237
  C   5.89462183248374     -4.89872998531287     -0.29335962495260
  N   6.56259284885698     -5.79395792995768     -0.03156377964035
  C   3.41071172332448     -1.27399381113753      0.19664741822792
  H   7.48578798174635     -1.26846703256701     -0.35650846988058
  H   8.87348862111650      0.75982554735947     -0.48285354693490
  H   7.80829351808475      2.99419754025496     -0.36816285268064
  H   5.36874318874148      3.18993353141443     -0.13312966784767
  H   6.25102895917180     -2.71647493401653      0.70243273759578
  H   3.71674681036848     -2.96946861881884     -1.67526606626359
  H   2.81464157221429     -2.16223311693787      0.35274789645453
