23
Coordinates from ORCA-job 19945optt
  Br  0.71353632087825     -0.38445684333029      0.13500076486616
  C   2.59184201290263     -0.17931374453223      0.25261484479288
  C   3.48951461840012     -1.15595442813996     -0.00546247181017
  Br  2.87102619641385     -2.89444985859605     -0.49083785747865
  C   4.90122989669429     -0.98257624720175      0.01782726934533
  C   5.93900171396821     -1.89479015637566     -0.27105560984401
  C   7.13904366035989     -1.19934409043908     -0.28587092270761
  C   6.89817830201922      0.17146157868418     -0.00385758154953
  C   7.87795999036802      1.18205163472848      0.07455963097931
  C   8.72524759462053      2.04395042840912      0.11512333234928
  C   5.49370625363288      0.31844048049668      0.20394757535338
  C   4.75876947859941      1.45598798691689      0.49565016860007
  O   5.28750987662881      2.71990109328958      0.45760036990471
  C   5.57085555619202      3.19352562874189     -0.84759910782002
  C   6.53477945779159      4.34125946209034     -0.71988818343744
  O   6.75535883594124      5.12529309211892     -1.60377430108297
  S   3.02463884476759      1.44316837557486      0.76299360215781
  H   5.80601648874172     -2.94721580850691     -0.46709051520681
  H   8.11626585576720     -1.61754681966655     -0.47780526079134
  H   9.47512345951322      2.79365220357594      0.17479771689932
  H   4.65912919689370      3.52415261422254     -1.35573920918759
  H   6.04978679182038      2.41050013364022     -1.44503997980299
  H   7.03347959708476      4.40930328429879      0.26390572547087
