18
Coordinates from ORCA-job 19969optt
  Br  1.00801212166103     -0.19600906185683      0.71577053006058
  C   2.73680913860284      0.01698595943820     -0.16809103337288
  C   3.48417599317362      1.16713084066302     -0.00612206134750
  Br  2.55940250163152      2.81510757614358      0.33068364669174
  C   4.88071158102085      1.22070755248168     -0.05193397968970
  C   5.82972337934821      2.26434901211359     -0.00205193716839
  C   5.69433282402171      3.65700566505226     -0.10478932140507
  C   5.69636306092626      4.86120025222102     -0.20269465800380
  C   7.15024387176449      1.67853823100705      0.17479046209309
  N   8.32917004354434      2.17805113050384      0.23789646570162
  N   6.94672963078611      0.29974395825109      0.27897220689028
  C   5.63456792319869     -0.03678335366795      0.01441313632404
  C   5.12852909191405     -1.26711620950117     -0.16345034687745
  S   3.46128641810160     -1.48219640007714     -0.65669899050000
  H   5.65296500957479      5.91945906032972     -0.27590798402293
  H   8.25955614658400      3.18773005007277      0.13334981956128
  H   7.72019152087117     -0.33093517718421      0.15933290023396
  H   5.71922974327447     -2.16796908599054     -0.06346885516887
