23
Coordinates from ORCA-job 19967optt
  Br  1.98434104248742     -0.91127196566142      0.00717506041580
  C   3.60491988007179     -0.01363578443571      0.33281048529400
  C   4.20277280562950      0.87377055070790     -0.52756247841143
  Br  3.30567362178188      1.24772107424174     -2.16813590460665
  C   5.42923903506899      1.55100107124899     -0.25686462291387
  C   5.74345214014829      2.77281852946970     -0.89573011083557
  C   6.63228159036767      3.83763270146897     -0.66693503361864
  C   7.81576185407694      4.05692605186856      0.01732947242733
  C   8.74113913983836      3.07988890339752      0.50400805929140
  N   9.86290708368458      3.41024600333311      1.04413279077552
  C   8.35318080406624      1.65200250612860      0.24839783025782
  N   8.88727671912740      0.93453994697141     -0.65691217531365
  N   7.42891033321946      1.14328857864937      1.13357344269433
  C   6.18387770697155      1.00512848193552      0.86602024570046
  N   5.45956221947237      0.26008260942483      1.77934260542009
  C   4.21565256347031     -0.31257031454425      1.61248439594378
  O   3.74318272211911     -1.02151658203805      2.48744814797679
  H   5.00877512126083      3.03946759381963     -1.64159406915075
  H   6.27828552909898      4.73737140914562     -1.16537317352162
  H   8.17692310113974      5.07760972930918      0.07072332478411
  H   10.39271769127458      2.56929405719217      1.27187654016132
  H   9.57608270116160      1.49347575118115     -1.15968232499142
  H   5.98008459446168     -0.07127090281468      2.57946749222089
