26
Coordinates from ORCA-job 19963optt
  Br  1.28937868882788      0.14885479828177     -0.42451241031745
  C   3.15301070545886      0.39699619574901     -0.24673584522582
  C   3.75150658765194      1.42529818024563      0.39784017713382
  Br  2.66651677355807      2.80130506104588      1.11918076931164
  C   5.18845941261581      1.45596582440688      0.45966676485902
  C   5.90592983968048      0.30582406759515      0.00314319407259
  C   7.36100695606753      0.14259913724998      0.34777862263343
  C   8.26838942851600      0.85844653392457     -0.65637291523024
  C   7.65498192272579      2.22569315274984     -0.95700439286821
  N   7.17460774592047      2.86647864182751      0.25062574851280
  C   5.90742002686033      2.67045341991484      0.83247960233462
  O   5.52160029965499      3.52761016471905      1.62264206419404
  C   6.58383684758943      2.13584004783411     -2.04755172053207
  O   5.80036880921137      3.01777662471659     -2.26965264420332
  C   5.26326606592696     -0.74351732917363     -0.71610664294974
  N   5.75596015286101     -1.81499916918290     -1.27005773073889
  N   3.88262189264217     -0.59829390688051     -0.85811635642365
  H   7.62217371374603     -0.91629312534154      0.41040851611376
  H   7.54089172467912      0.57089241406200      1.33616931085917
  H   8.34600436394757      0.28392347560597     -1.58534753491708
  H   9.27881054778426      0.97785609277513     -0.25626860885685
  H   8.42132228562919      2.88135797561552     -1.38629323982407
  H   7.46995720903346      3.81615815832243      0.41006480200338
  H   6.60686783254492      1.21749249830491     -2.66620185364226
  H   6.76308117534773     -1.83327595761895     -1.15813530643973
  H   3.41502899151842     -1.33844297674925     -1.35364236985887
