19
Coordinates from ORCA-job 19964optt
  Br  1.16390136298401     -0.16052874978148      0.45592241717084
  C   2.93098604049188      0.12750190092852     -0.19586492938581
  C   3.71094640925623      1.17666500481025      0.16123855249583
  Br  2.95812895208126      2.54686066275601      1.28733662774826
  C   5.10948604193949      1.21306325385642     -0.11888677743987
  C   5.85537592637821     -0.02946584097641     -0.12852643523820
  C   7.22181464837135      0.00105502413635      0.02187293112217
  C   7.94162243783855      1.19726752498849      0.09548787750212
  C   9.33938239269386      1.15006102327506      0.32556102967651
  N   10.47283473848409      1.05847957686820      0.51913896997624
  C   7.24229669150073      2.40885874245758     -0.17874415716932
  Br  8.29183684087899      3.96254508847182     -0.43724008497198
  C   5.88230573621034      2.40698733236355     -0.32380557836663
  Br  5.02549851844520      3.95195221503551     -1.03032368093289
  C   5.19379593565310     -1.32276745710480     -0.35983271355326
  N   5.62884829971482     -2.50419111505683     -0.18678528196732
  S   3.57396910484810     -1.20292588762071     -1.12260005094310
  H   7.78630982785020     -0.92296663601329      0.05125702958155
  H   6.56866009437953     -2.49445166339427      0.20879425469485
