24
Coordinates from ORCA-job 19960optt
  Br  1.57284857120874     -0.43701117369295      1.38789694487668
  C   3.26506762589268     -0.15428004497137      0.57186970768346
  C   3.72387556557341      1.06987755262686      0.27899418365032
  Br  2.14077442392731      2.80000270194740     -0.60056614793374
  C   5.02218233556526      1.28822825411053     -0.28421076290472
  C   5.78687259133516      0.19722314324295     -0.55802008588330
  C   7.16817247178912      0.09895912002562     -1.14536840520785
  C   7.85122064082596      1.42720624135869     -1.46885877327664
  C   7.78372339942333      2.40962350694297     -0.28401864007099
  C   6.55099601545931      3.28081260074635     -0.41254190666315
  O   6.65155194304429      4.49135472584293     -0.48511206293749
  N   5.36465191528371      2.64094695386804     -0.51601920343927
  C   9.24106338705901      1.15459830631886     -1.84648315401226
  N   10.32985407711479      0.92028488011010     -2.11937117693020
  N   5.27580216051446     -1.04521653727150     -0.25413190159795
  C   4.04447673106788     -1.34924458155540      0.31350550087558
  O   3.75398711734911     -2.51401138053322      0.53527437608178
  H   7.12663300565981     -0.51638227469344     -2.04901699288333
  H   7.80300486826143     -0.43894748992923     -0.43222335368191
  H   7.37157726872220      1.88864005243154     -2.33592482428586
  H   8.63827902896333      3.08038828329104     -0.27447639468768
  H   7.76326931707527      1.84556742731295      0.65210912871805
  H   4.53973989199558      3.23839601139821     -0.59087873885978
  H   5.83937564688849     -1.86201627892795     -0.43942731662973
