22
Coordinates from ORCA-job 19970optt
  Br  0.99368822987096      0.29307424533206     -0.17947923224751
  C   2.86754127526255      0.08075414735376     -0.03292938981868
  C   3.66654547976888      1.22222385937306     -0.02987508954209
  Br  2.94643335061121      2.97332727270343      0.01370127449664
  C   5.05184272302958      1.11959571488046     -0.08702769504361
  C   5.63514586455397     -0.15105534518735     -0.19934278391458
  C   7.07170948267626     -0.20371992850364     -0.30270450033112
  C   7.79871609745859      0.91992354747968     -0.27374118224678
  C   7.16459227176641      2.23112729536038     -0.13079333059728
  N   7.75543371586293      3.35569913303510     -0.06867714963952
  O   5.81227806704004      2.26193461031401     -0.05792479297014
  C   4.84237174322632     -1.27763555484433     -0.18907024090632
  C   3.43897755469504     -1.23075063204181     -0.04173797140145
  C   2.79434190771742     -2.52660167217104      0.06716826490466
  O   3.41909137498368     -3.58111434404959     -0.23779424962381
  C   1.49655214335102     -2.67162729749098      0.68055941870722
  C   0.46321770227643     -2.91780076381608      1.25232411149513
  H   7.54194509469324     -1.17525409979056     -0.40544580699079
  H   8.87767429734582      0.91051231714373     -0.34953450918185
  H   8.75781690036720      3.20749871799399     -0.13604153690896
  H   5.28816808944576     -2.26110048068251     -0.26617011329134
  H   -0.45908336600337     -3.10501074239174      1.74453650505218
