21
Coordinates from ORCA-job 19978optt
  Br  0.76702350300219      0.34026636893548      0.51154017430203
  C   2.57904456765598      0.19237083688655     -0.04640769942996
  C   3.43816202513376      1.32108860859812      0.00580115801310
  Br  2.70256144523742      3.08002619436065      0.01450337777089
  C   4.81417537796295      1.19893596826632     -0.04617725388384
  C   5.41737304893230     -0.09366276343885     -0.14511818487245
  C   6.81157862238887     -0.18203200187325     -0.19636264546951
  C   7.62975734221451      0.93810031726544     -0.16893588923050
  C   7.06887491510060      2.24548119358071     -0.10119202871286
  O   7.67045724366787      3.32005187829096     -0.09753085649144
  N   5.66589664861610      2.27805276147304     -0.04001999796575
  C   4.53278904612577     -1.19818307883298     -0.26857545474266
  O   5.10223905657801     -2.43540517623232     -0.57906114246171
  C   5.37117354758234     -3.26913766188880      0.43408881109511
  O   5.19388682963383     -3.06842219007409      1.59438481982157
  C   3.16826259572550     -1.06420796152418     -0.20558804151901
  Br  2.11333645062073     -2.63814913011964     -0.37515155285824
  H   7.25773572441638     -1.16490846225273     -0.28712947287167
  H   8.70518568328464      0.86493288077915     -0.22473896269194
  H   5.27522489637498      3.20760823834397      0.00056242547063
  H   5.79426142974519     -4.19380682054355      0.02010841672820
