25
Coordinates from ORCA-job 19973optt
  Br  1.32985101549338     -0.28479682489229      0.94470711837014
  C   2.88110592630716      0.10170731655018     -0.27937866464609
  C   3.57558975140439      1.30480454284734     -0.12073500421785
  Br  2.61757722114368      2.92013119449866      0.15474863400237
  C   4.94866971382323      1.28432083517029     -0.20335189783327
  C   5.64457563876821      0.07599699110122     -0.25352780041366
  C   7.12718927528591      0.26751385030989     -0.10431127001372
  C   7.95424759476690     -0.65144600439356     -0.98850208993902
  C   9.43251310140347     -0.51899121425230     -0.82377445060046
  O   9.98895031493473      0.19258559207098     -0.02822185964875
  C   7.29692352332141      1.75840603487990     -0.45239087251550
  C   5.93755435444641      2.43775475323749     -0.14245157380859
  C   5.67299644598584      3.54407576958076     -1.05889514426369
  C   5.51529762925336      4.44458467226115     -1.83448335184120
  C   4.96756755993748     -1.15303855919513     -0.36560116612531
  O   5.41894540318523     -2.28318414443996     -0.38354461007072
  O   3.57434747964585     -1.03143501250039     -0.53644957316971
  H   7.44069208274668      0.09784452116108      0.93386419828286
  H   7.71673456530538     -0.48952291585797     -2.04790195072098
  H   7.68610600783486     -1.69850845069412     -0.80111131240451
  H   10.03957621035371     -1.15388154504829     -1.50360082558712
  H   7.48009633614757      1.85045217465987     -1.52570633372006
  H   8.12554214939164      2.23079730890773      0.07099954765370
  H   5.93257558776745      2.83680493130139      0.87827582493415
  H   5.33677511134587      5.23502418273607     -2.52165557170299
