21
Coordinates from ORCA-job 19971optt
  Br  0.92581746410681     -0.42211728376584      0.00737145062170
  C   2.79663814697093     -0.13227387134573     -0.03933593542591
  C   3.37702617415048      1.11858496440505      0.05047431871086
  Br  2.24948905318012      2.60989855565257      0.33551409235911
  C   4.79482411289098      1.25113663499810     -0.01472080383727
  C   5.55773212953952      2.43612751494228     -0.02503932302047
  C   5.05708715935725      3.75261540587240     -0.15728564153273
  C   4.79015888701487      4.92048262081136     -0.29965328434139
  C   7.01942433481042      2.38893207473725      0.03830228250482
  N   7.83985036526936      3.35677035715656      0.09461489475056
  O   7.61146820345339      1.15294033619725      0.04302203687666
  C   6.91598130728473      0.00667034612378     -0.05127653980906
  C   7.72280430274259     -1.18750272825725     -0.10925009200144
  O   8.94449196864181     -1.19976015805216     -0.08994342366968
  C   5.51095451916287     -0.00839066058711     -0.07249611320899
  N   4.90505760185625     -1.21280300165118     -0.15413000952892
  C   3.59970509444482     -1.27380815346487     -0.15802426870878
  H   4.50289491998773      5.93535002717160     -0.42463281923870
  H   7.32467988666159      4.23130663045607      0.08912572869735
  H   7.13876090070302     -2.11471312002685     -0.17038115598545
  H   3.13515346777028     -2.24944649137332     -0.24225539421227
