23
Coordinates from ORCA-job 19977optt
  Br  1.42175169643583      0.53998265197811     -1.48553246862556
  C   3.02754810756225      0.09791029995812     -0.55170060448831
  C   3.43294154536130     -1.23821536200492     -0.42969496814313
  Br  2.11207319273177     -2.63441541948619     -0.01568359876684
  C   4.70020214102074     -1.38130834941761      0.21810860296948
  C   5.54596611997206     -2.41812792453635      0.57684602154538
  C   5.40483545401958     -3.89380457158864      0.39968419879223
  C   6.74518875113166     -4.59667040387848      0.64561094325680
  C   7.21669199809347     -4.30915039900064      2.04875872046312
  O   6.63444186333697     -4.67476420364138      3.03950994561992
  C   8.52822448030814     -3.55645326905569      2.23995954657978
  O   9.49112124873452     -3.75539556653205      1.55307283796120
  N   6.62668781708965     -1.87932284332210      1.17494557265299
  N   6.53172364770601     -0.57840869689194      1.21125374695938
  N   5.37439870898591     -0.26870817512524      0.64618726294741
  N   4.99828313873247      1.02842398080872      0.50451454333509
  C   3.83082613179483      1.14321494147531     -0.12008471254695
  H   5.04608182374405     -4.11643249453728     -0.60693150421702
  H   4.65996047719510     -4.29195301886497      1.09262025118000
  H   7.49949309451738     -4.25762709308092     -0.06353965142899
  H   6.61643018742863     -5.67586731248944      0.54603382099910
  H   8.54090962110828     -2.90051665226427      3.12597545006652
  H   3.52421875298924      2.16560988149788     -0.30491395711162
