22
Coordinates from ORCA-job 19988optt
  Br  1.12575778597929      0.06149281240026     -0.00316028502629
  C   3.00266475204990     -0.10610153577793      0.04980001762802
  C   3.65141900630030     -1.28043801250651      0.06660451603396
  Br  2.80845633904491     -2.96142650239022      0.05005796976213
  C   5.08032310702024     -1.20202885720185      0.09129109349843
  C   5.75687458939686      0.01097012384021      0.09823918563185
  C   7.18208831931174     -0.28987955381186      0.11183529394548
  C   7.25859999256018     -1.70237808587287      0.11532168877408
  N   5.97340479258560     -2.20816335253890      0.10279814056372
  C   8.25614580618141      0.61184497713311      0.11422570745490
  O   8.27417909464727      1.85607554746690      0.11509929614363
  O   9.50094378097071     -0.10304686225849      0.11296065888962
  C   10.63369253802026      0.60224046963872      0.10240470462959
  N   11.79137199636899      0.08166173941108      0.09286605129884
  C   5.02772971190827      1.24976430470049      0.09133381029197
  N   5.38153902376111      2.45384559598984      0.10457781367745
  O   3.60025569549716      1.07871553543270      0.06415113403985
  H   8.11628304860016     -2.34832465531612      0.12335709741051
  H   5.72218046034354     -3.18126311887558      0.09975231132198
  H   10.49142233154603      1.67817259367163      0.10210244105646
  H   11.70515812850546     -0.93582823370628      0.09416331111550
  H   6.40550969940053      2.49209507057168      0.12021804185831
