22
Coordinates from ORCA-job 19989optt
  Br  1.01815934907773      0.04300663191627     -0.06113701975714
  C   2.89693023684806     -0.04879584261292      0.11131410270939
  C   3.66342041008602     -1.09626054999130     -0.25000323508195
  Br  2.88237809079219     -2.66462050400300     -1.00155078407357
  C   5.07950378831142     -1.08874228415266     -0.09310300392200
  C   6.05138060400448     -2.03420084293572     -0.41846936618406
  C   7.30774738836438     -1.51510785273874     -0.05068975827645
  C   7.12683299750139     -0.24496297866196      0.50762331577534
  N   8.15303853290461      0.56760984988432      1.06440703685446
  C   9.18560348107654      1.01269248601778      0.15626859537404
  C   8.14932331514795      1.96264950351581      0.65439735032476
  C   8.47341768931076      2.95470753308068      1.65027838243898
  C   8.75786208237115      3.79517984553757      2.45673323991196
  C   5.74704675351301      0.05974808935755      0.49666052840166
  N   5.18835025463494      1.20005792073741      0.95105628131781
  S   3.56134118413169      1.40999145119538      0.81882888703669
  H   5.86578215899308     -2.99316499447669     -0.87748426724762
  H   8.26062470333201     -2.01248833670474     -0.16575410632198
  H   9.10020020386578      0.70095229315196     -0.87934199879663
  H   10.18593757404640      1.06722119558709      0.56705198286857
  H   7.37353930055789      2.24948437621328     -0.04544493319565
  H   8.99157990112833      4.53104301008262      3.18635876984338
