24
Coordinates from ORCA-job 19986optt
  Br  1.17463757638807     -0.22672915686636     -0.16264052823667
  C   3.08184874635084     -0.04304281710803     -0.06442690434268
  C   3.64311077512587      1.19831839760582     -0.06454494018578
  Br  2.51660602416233      3.13214892264856      1.18248322982403
  C   5.03748909344469      1.18063241971258     -0.01122879708339
  C   5.78287919471637     -0.01517375211581      0.06465028237204
  C   7.16708384371904      0.33118169174215      0.11519536853908
  C   7.21364067943050      1.69270163668388      0.05996829979816
  N   5.94260941291209      2.21351910031912     -0.02409123877751
  C   5.63794565240590      3.62067080433260     -0.13907267546720
  C   5.74197422539715      4.32781367545533      1.19834151975849
  O   6.17268270669319      5.44376896761979      1.30967403120953
  C   5.03327858030770     -1.19503065681667      0.06437218120880
  O   5.74038667604507     -2.38315917986946      0.11722608582198
  C   5.10282491487680     -3.51322914102551      0.50772936695583
  N   5.63886511723062     -4.64981926044704      0.46022790726397
  N   3.73582162418063     -1.22143755186272     -0.01380395420559
  H   8.00888676840632     -0.33705406688444      0.17580863424549
  H   8.06382702966454      2.35714448458748      0.06159126230493
  H   4.60799543121552      3.71893968033435     -0.48637367778259
  H   6.31655705355918      4.09882933733731     -0.84676221607360
  H   5.39856372393829      3.73744830256892      2.06419896724766
  H   4.09465277656918     -3.35757636449351      0.87673282829582
  H   6.57783237325994     -4.57886547345838      0.06574496730919
