23
Coordinates from ORCA-job 19985optt
  Br  1.57645235893706     -0.01295144061010     -1.46346799365918
  C   3.38931632034434     -0.09932998632566     -0.81104181139263
  C   3.83143910612019     -1.15995245772183     -0.11892225359994
  Br  2.40279949608404     -2.88595783680615      1.07963773838627
  C   5.16805052523295     -1.16091543542632      0.32358314099685
  C   5.94107058938033     -2.05389396193695      1.05912448314224
  C   7.22397230269528     -1.50805598405018      1.18190518769908
  C   7.23126117673207     -0.28796438404626      0.53491535188428
  N   5.98735023466289     -0.06111197488302      0.01275644731924
  C   5.51753427597271      1.00556600076081     -0.70934313560303
  C   4.22865984090080      1.00980103841496     -1.12600580675831
  N   8.26016780806711      0.66196158652866      0.42797691649922
  N   8.78649506638335      1.21059284152052      1.55721018774063
  C   9.79362208961060      1.94573696717985      1.30228758333317
  S   10.22134996091019      2.08119428223238     -0.38203685348264
  C   8.88896560567533      0.96459873878939     -0.77402111605863
  N   8.51893311128490      0.51280929676579     -1.89535223059657
  H   5.56194977933900     -2.98197708653343      1.45098870654792
  H   8.07270023375815     -1.92865417422516      1.69692497856669
  H   6.22551848757127      1.79285689109283     -0.91995843408162
  H   3.85601350488502      1.84710085677033     -1.69965488277065
  H   10.33561707038531      2.45876984847311      2.08108387121019
  H   9.09676105506689      0.83977637403642     -2.66059007532260
