21
Coordinates from ORCA-job 19982optt
  Br  0.89289686811993      0.33699586397350      0.19492744650626
  C   2.76617470532163      0.25223182375308     -0.00977094378927
  C   3.53556472024983      1.35778310813356     -0.21207262322996
  Br  2.70721745472223      3.06816501987639     -0.28721249587456
  C   4.96914464978825      1.30288430041077     -0.34231658799992
  C   5.76960273760680      2.44577303268049     -0.33325718814660
  C   7.14238471616962      2.51683011425160     -0.05028351218881
  C   8.06304840877438      1.50863290854453      0.21777671802254
  C   7.91040673808535      0.12335582721031     -0.09281994314297
  O   8.71489410843984     -0.74523335392681      0.14389824849928
  O   6.79825293296810     -0.22389761836416     -0.86366892345278
  C   5.51608308575826     -0.02365981181193     -0.40822850994366
  C   4.77202840892176     -1.13141810737437     -0.19201019279220
  C   3.35466343386339     -1.08244536723650      0.07299558204065
  N   2.61471215448576     -2.11517376943973      0.32787929512345
  C   7.65277118589313      3.85833836645637      0.08984522184127
  N   8.06879941920455      4.92433496680621      0.20379864995336
  H   5.27081493626768      3.39901048673911     -0.42082186030993
  H   9.02974326845416      1.77669451324358      0.61820622170732
  H   5.24953193421341     -2.09892077597782     -0.28140539536374
  H   3.20126413269185     -2.94828152794819      0.33854079254027
