27
Coordinates from ORCA-job 19995optt
  Br  2.13917183381788      0.69979953641001     -2.17894740163606
  C   3.67734741545670      0.14343878818724     -1.16939407262837
  C   4.66177073751097      1.03102465153018     -0.82991484513126
  Br  3.97152330521092      3.47366213507336     -0.42848821302745
  C   5.77893284834114      0.58736117507446     -0.13159009954849
  C   5.88144407191838     -0.75247416104567      0.27243383997407
  C   7.05659510173719     -1.26275893264138      1.06468619426568
  C   8.34495809493987     -1.43406425851298      0.25571651460232
  N   9.19547172058637     -0.24205665271413      0.12338573188614
  C   8.90720527582223      0.75477589856509     -0.83270959491967
  N   7.92500296026925      1.53708474212790     -0.89223187727467
  C   6.91075957061028      1.54406785067733      0.16049654398273
  C   4.85622967233985     -1.61294512423208     -0.10481863626998
  O   4.94093250955122     -2.99277489739229      0.18897630963673
  C   4.54324025528223     -3.41211556484958      1.39153719388704
  O   4.16229839882615     -2.73872081784163      2.29836975792002
  C   3.75472817399756     -1.19834733534190     -0.82722270986361
  H   6.80983840978409     -2.24030089812165      1.47709044167405
  H   7.25673912632168     -0.61116262380198      1.91622698484307
  H   8.08745224176892     -1.84305436575143     -0.72841710824964
  H   8.96573432021012     -2.17377784498630      0.76455228872294
  H   10.15287932800953     -0.53908790265516      0.00500562819082
  H   9.68490828533314      0.87494496621503     -1.59216187480850
  H   6.48989735258067      2.54612691652439      0.19487470880773
  H   7.37575771576657      1.30841301649425      1.12418206370982
  H   4.63128228662281     -4.50675272998023      1.42885642029046
  H   2.98889898738403     -1.91030556701084     -1.10649418903593
