23
Coordinates from ORCA-job 19991optt
  Br  1.11853742394182      0.27817304102163     -0.33178175226349
  C   2.99634638201461      0.06826939514855     -0.20463370228784
  C   3.62473691053860     -1.10014360341294      0.03806472568209
  Br  2.66823615255635     -2.71851279895904      0.26841299121271
  C   5.05494662553319     -1.14212458949384      0.08797496350540
  C   5.97207161628400     -2.18519703962268      0.27373221475709
  C   7.26096590259358     -1.63901678923369      0.21301959352147
  C   7.13608690295797     -0.25787528603710     -0.01863085768003
  N   8.19851071393102      0.68285894893041     -0.07727955810785
  C   8.15958687360670      1.95171607395054      0.48423397460861
  C   9.34255474257402      2.52379168286203      0.25641122352464
  O   10.14415889330817      1.64499624280452     -0.42701679248047
  C   9.42795713740291      0.48358337030979     -0.64209323883750
  O   9.88786059088789     -0.47061363443630     -1.21177548631124
  C   5.77643407024055      0.08609152465229     -0.10499982292623
  C   5.09649099623076      1.30878909367869     -0.28439875719751
  N   3.68989338088203      1.23669683613367     -0.45883531761976
  H   5.72247154233208     -3.22539391604971      0.41733245726208
  H   8.19569831183251     -2.17292386566764      0.28521945786985
  H   7.27709063790972      2.30303005129624      0.99061214316400
  H   9.75032226856118      3.48816313028835      0.49433753504559
  H   5.55273657969381      2.19467736534542     -0.70621708193415
  H   3.16930534418636      2.07996476649080     -0.27668891250746
