8
Coordinates from ORCA-job 199optt
  N   -2.69415089542896     -0.42764461755800      0.04121080683259
  C   -1.37503521056338     -0.28503345792325     -0.06770567809863
  C   -0.99086183752175      1.05247963021996     -0.08138947156986
  N   -3.27080406233405      0.77800576219968      0.13760919599923
  N   -2.20504311106422      1.74060678151045      0.23089743316361
  H   -0.73619220917023     -1.15498838592880     -0.14673555543149
  H   -0.03814919054627      1.45663141770355      0.23268425722796
  H   -2.43576348337107      2.52894286977636     -0.36357098812342
