21
Coordinates from ORCA-job 20005opt
  Br  1.21813455674019      0.29212092486295      0.37931831464291
  C   3.11609432955710      0.13998591261818      0.25523950834967
  C   3.72630278149589     -1.07092528778832      0.26972868029756
  Br  2.78931424302286     -2.97670734609809     -0.88280697804041
  C   5.12912733950446     -1.03307727651084      0.21140728863685
  C   5.88224402710334      0.11554526667314      0.15094272072322
  C   7.25651798639921     -0.25786439917496      0.13241047667993
  C   7.23091499416589     -1.61483227010267      0.18176444128449
  O   5.97817412435640     -2.10077764295657      0.23300765076647
  N   5.22805817439321      1.31639724269913      0.12928465381612
  C   5.67114786129809      2.61696715076993      0.07840959510080
  C   4.51100539275721      3.37138946733964      0.10460587556136
  S   4.88541152560373      5.05464976959011      0.05431626138493
  C   6.58546433258069      4.70094300488957      0.00126197436509
  C   6.87047378782381      3.36772422836286      0.02002743927819
  N   3.38448791557599      2.63214053458929      0.16806900174134
  C   3.82785610672159      1.37545139748297      0.18230560647767
  H   8.13031437489738      0.36897353411828      0.08617684231441
  H   8.02135007702758     -2.34534653588095      0.18184728793589
  H   7.28858272462215      5.51603927182390     -0.04303724397554
  H   7.87402334435282      2.97120305269239     -0.00827939734096
