26
Coordinates from ORCA-job 20009optt
  Br  1.04319439240474      0.09655936681712      0.31388899305921
  C   2.96553319817858      0.03029464923774      0.20586257270164
  C   3.68498824702723      1.17911350241480      0.12543972341788
  Br  2.76258822706120      3.57402157476886     -0.34767559848042
  C   5.06825782925361      1.15917111708148      0.07813620796504
  C   5.73230517316031     -0.06275302688201      0.14349908237811
  C   7.24136135439415     -0.09500886612993      0.16047790319184
  C   7.80382319856192      1.18588840137130     -0.43044436516470
  O   7.22733771368800      2.31255672096694      0.20593815298679
  C   5.82987405410087      2.45440130570907     -0.04285326046777
  C   5.68929701947305      3.08693361991008     -1.43341720379105
  O   5.79847003769072      2.45506984420652     -2.45026195574147
  C   4.99148106625575     -1.23929330028509      0.23495753119881
  C   3.60073834953092     -1.21831113972208      0.23742443023635
  N   2.85869327409868     -2.41462042952672      0.28648518449676
  C   3.21853860364617     -3.58980440362360     -0.28236274936330
  O   2.56326440999272     -4.60800689272548     -0.23031759544602
  H   7.60928635253840     -0.95804472966534     -0.40033930570206
  H   7.59318452609511     -0.19980383232310      1.19148457528665
  H   7.61393388989852      1.21982593380660     -1.50742172852078
  H   8.87807028568401      1.26317719672578     -0.26011082642045
  H   5.45911994477397      3.16612850512114      0.69251366772400
  H   5.58978532298881      4.18429632337993     -1.44650365477967
  H   5.51078302071971     -2.18592755346670      0.32626977802141
  H   1.91346767070596     -2.35992093648594      0.64393817003940
  H   4.17862283807671     -3.53394295068137     -0.81660772882620
