23
Coordinates from ORCA-job 20017optt
  Br  1.11505252581972      0.48946221636217      0.12924851556334
  C   2.98099554649180      0.26270749596619     -0.11087029569893
  C   3.76492706855863      1.40031171954542     -0.27514397969790
  Br  3.04047184835502      3.15247112645754     -0.35173434899772
  C   5.15009595276875      1.30467675779734     -0.36408570929871
  C   5.75878671802023      0.05481286233189     -0.24025161746302
  C   7.25956364167739      0.02565791442623     -0.35768883122469
  C   7.89012373647380      1.22881248053403      0.30352973103813
  O   8.99015124700642      1.23001992045164      0.79477039253542
  C   7.02697534879711      2.48220759385592      0.31651818314159
  O   5.94275496459472      2.41501797740363     -0.58120474811393
  C   4.99203914884983     -1.06513253604638     -0.05139165720685
  C   3.56971984797962     -1.03308497079092     -0.02588367677530
  C   2.94178030221621     -2.33484068821469      0.10441118509229
  O   3.63646518621380     -3.34936768720899      0.40151914057428
  C   1.55859625470995     -2.56714631195991     -0.23432104608368
  C   0.44823600105294     -2.91418661088201     -0.55487647062170
  H   7.54559349199509      0.08812887224920     -1.41618385071282
  H   7.69552402021523     -0.88514951268873      0.04945470610871
  H   7.64077399529651      3.33795582023463      0.03761178995385
  H   6.66871654291507      2.62554887997567      1.34424966225860
  H   5.44713951158926     -2.04095769157420      0.05701377575707
  H   -0.54148290159718     -3.18292562822568     -0.83069085012804
