25
Coordinates from ORCA-job 20014optt
  Br  0.76713305082889     -0.52153853999445      0.42384933487267
  C   2.66032302057516     -0.40070883559764      0.27045210367164
  C   3.45433710563989     -1.39999208224670     -0.16371240021664
  Br  2.74697299227999     -3.09390947252767     -0.64829302731770
  C   4.87543954698866     -1.22249797559138     -0.20151687435750
  C   5.93795272154466     -2.04348478182440     -0.60296783860814
  C   7.13386121198434     -1.35406920500882     -0.33782646481030
  C   6.79507776185149     -0.11371413982075      0.22623168552758
  O   7.70088399740960      0.86502187908956      0.65370259442910
  C   8.14780654942811      1.73973021372752     -0.26926295980069
  N   7.90486321847474      1.77558736975281     -1.50443662745497
  C   9.08269938120678      2.74653155806309      0.36670264331029
  C   8.42272849324627      3.59085650097066      1.35979117036503
  C   7.88496070983590      4.29183439780468      2.16842608703709
  C   5.40428151349462      0.01207102879239      0.31768821876092
  C   4.55805620128579      1.03781177987296      0.76329373666950
  N   3.16373839572868      0.79783930397670      0.73798836089188
  H   5.84732772227997     -3.03621725332316     -1.01694379950966
  H   8.13870968511273     -1.70830384297744     -0.51725663815235
  H   7.26876245593997      1.01184186827824     -1.74859401649075
  H   9.49854529128995      3.36200241641614     -0.42883843051679
  H   9.89644519712165      2.20264198146741      0.85292715668984
  H   7.38875769277551      4.90265916500418      2.88248563162478
  H   4.88018600287293      1.92691511810083      1.28280036756866
  H   2.56115008080351      1.59509154759524      0.58730998581649
