23
Coordinates from ORCA-job 20018optt
  Br  1.59867007154889     -0.88023495579492     -0.05402207041127
  C   3.42114274224828     -0.38038377591141     -0.01241394105512
  C   3.87534962057622      0.94255509511600      0.27198509998299
  Br  2.58692784497932      2.28548391215414      0.66882806743696
  C   5.23610096172096      1.23955540201504      0.28031502531483
  C   6.19260740293165      0.24751860508005      0.03513062145480
  C   7.64999965172800      0.58502725527104      0.00836373280949
  C   8.01857772727562      1.45287429996364     -1.17860540679274
  O   7.50284966022592      2.79156740427650     -1.22823449876651
  C   6.43638282962255      3.32269412994412     -0.60440641267568
  O   6.07443167918434      4.41086514778235     -0.96084978130122
  C   5.77729270842554      2.61885673073856      0.57021800810406
  C   5.74667842234161     -1.05285684657876     -0.26355074930462
  C   4.36278973990372     -1.34032028064579     -0.27844015356315
  O   4.20780829608896     -2.61902580520531     -0.58418704988324
  N   5.59159889693737     -3.16529943872042     -0.77814830015887
  N   6.40468454661937     -2.17719263983836     -0.57250848308147
  H   8.21763181579369     -0.34172317867284     -0.10088652802320
  H   7.98832479625708      1.05632791312939      0.93767579743108
  H   7.68446126185990      0.95698800989032     -2.09225202504636
  H   9.10056015523329      1.58772938486825     -1.23246078504571
  H   4.99961711047039      3.29575532881907      0.90385831064814
  H   6.52451205802725      2.55223830231931      1.36659152192678
