24
Coordinates from ORCA-job 20012optt
  Br  2.81866936870971     -0.81379396513255     -1.10068574430317
  C   4.26748167898545      0.33966692910132     -0.72428069404341
  C   4.35044883828100      1.21973573389476      0.30365424816840
  Br  2.79874103275914      1.62441371982496      1.34031823394438
  C   5.58909405836543      1.85569844055783      0.59891136913852
  C   5.75069862733563      3.05608586957717      1.24689536604804
  C   7.03383857149701      3.62785542478110      1.44783655593795
  C   7.07774981222611      4.92514816632602      2.11428247953322
  O   8.06963886781506      5.58315954762980      2.36195368583154
  C   8.18669466592475      3.01338444787319      1.02085584046459
  C   8.20349848723990      1.65217635780526      0.39402512386389
  N   9.09984362165784      1.70873319456696     -0.76451530599009
  C   8.67756349236747      1.33235074273805     -1.90084828411270
  N   7.42926180311440      0.84136716579004     -2.27404184431284
  C   6.57597414181935      0.70723145015440     -1.31452797393775
  N   5.34971097507018      0.18853956685733     -1.59019006874993
  C   6.79358092560416      1.04080362508370      0.14063070682529
  H   4.87849889021397      3.60155723873247      1.58961431848088
  H   6.08005239613782      5.30883748225312      2.41545829974417
  H   9.14384395067157      3.49736696000399      1.15827043157156
  H   8.70564261159702      0.97019460782912      1.09530274678173
  H   9.36912301357673      1.41045692888266     -2.73797041414413
  H   5.17029516735526     -0.03018734674048     -2.55993195696509
  H   6.74505500167492      0.07521771160974      0.66598288022492
