18
Coordinates from ORCA-job 20020optt
  Br  1.04768585556685      0.42047456804106      0.16290660589393
  C   2.92110749170029      0.22430032032177      0.10801946002513
  C   3.77880917788485      1.27087352995425      0.08170061520691
  Br  3.19570060290925      3.06149743532075      0.08360861674334
  C   5.17758332986708      1.04132504355246      0.05879718488882
  C   5.86680881279824     -0.15570342773547      0.05677923994318
  C   7.25470833888543      0.14797640897128      0.04386963738929
  C   7.31706840320767      1.51767746107571      0.03907180192923
  O   8.23747780358765      2.43517379947910      0.02710249459588
  C   9.63145982239847      2.06833315927008      0.09476691511618
  O   9.97255534127627      0.88000416153409      0.16632850596635
  C   10.41320967138626      3.22752314527942      0.06995178941069
  N   11.10255706766348      4.16918494653597      0.05264308979347
  O   6.06000866735690      2.05937260364600      0.04566685940567
  C   5.22767024509727     -1.44742389450171      0.06668443296257
  O   5.75306476112570     -2.53095713566979      0.05632612433394
  S   3.41895574037554     -1.43487485061979      0.10012028236499
  H   8.09356886691271     -0.51975727445520      0.04465634403043
