22
Coordinates from ORCA-job 20023optt
  Br  1.27717150557729     -0.19498945118856      0.30858263073809
  C   3.14151678171748      0.03298989641913      0.12160163512444
  C   3.76976407789609      1.23317976240065      0.10916893615432
  Br  2.82624181198904      2.85497276218041      0.29205004132934
  C   5.18525742226743      1.22609717568931     -0.02181706269782
  C   5.87679458905165     -0.00397942807789     -0.08941827700387
  C   7.33923463150029      0.30532934251444     -0.16130695108473
  C   8.05544589937486     -0.20726607645955      1.07537636205882
  O   9.43604341676214      0.20714945200918      1.12334165353907
  C   10.30933654196420     -0.48756601326582      0.41398340671562
  O   10.08727024597671     -1.46084224845799     -0.24756706553311
  O   7.40105459577737      1.73137184403870     -0.21002977060054
  C   6.13363095090520      2.30077411895055     -0.10972496797364
  O   6.01563126051063      3.50433259401116     -0.11504742467498
  C   5.25571488013758     -1.25569033084910     -0.06942184956325
  O   5.75591338444396     -2.38547275049743     -0.10657420982983
  N   3.83593185462115     -1.15603896423873      0.00201533628311
  H   7.82819797866602     -0.09659956690560     -1.05431403003827
  H   7.98631213658840     -1.29505539526434      1.09867695371429
  H   7.60271254085925      0.23039600712899      1.96257012653178
  H   11.30601699573551     -0.03864745695199      0.52670818554643
  H   3.34180649767765     -2.03144527318553      0.04914634126474
