23
Coordinates from ORCA-job 20024optt
  Br  2.08894025982659     -1.31240100875900      0.34547823206955
  C   3.57471602907585     -0.17729743658282     -0.02152919747642
  C   3.40357291975400      1.21292433919780     -0.11016478304902
  Br  1.86139159284865      2.07968803589056      0.56310830743310
  C   4.56890976718929      2.00101970508266     -0.36223330433822
  C   4.86803240613348      3.27873183097756      0.07372136800902
  C   6.25961029342449      3.55651236313452      0.39694007810179
  C   7.31993559436985      3.34666907038864     -0.39388186491345
  O   8.55688735556397      2.96712751608906      0.15775978931361
  C   8.64062621176677      1.63219978871836      0.42720585579303
  O   9.19519965009147      1.21662620470060      1.38973375142091
  O   8.08231277735604      0.89969760796968     -0.56170109728641
  C   7.30647164280872     -0.26423245413314     -0.26316050444307
  N   7.94355704147741     -1.32798535639662      0.04107246136859
  C   5.90998976617424      0.00630703209934     -0.44738369846881
  N   5.55152119586258      1.24206735837894     -1.00555931628369
  C   4.82435423814658     -0.79167315678648     -0.08083547496473
  H   4.08967820357720      3.82612153204695      0.58545315541701
  H   6.48236673629063      3.72930079302054      1.45130217565712
  H   7.29638890942954      3.32165882570176     -1.47613804727134
  H   7.27780349873713     -2.08454466774300      0.18510177242394
  H   6.34051118486325      1.77493142678458     -1.31025686936359
  H   4.93522272523219     -1.83044934978051      0.19296721085108
