22
Coordinates from ORCA-job 20027optt
  Br  0.98428635520253     -0.23127397506053     -0.10043633870260
  C   2.87800550733282     -0.14068925265478     -0.04692947962582
  C   3.56563059864949      1.10051304691793     -0.07159229688246
  Br  2.69154991445859      2.76817311657140     -0.11153503630189
  C   4.94632536412008      1.05823136450455     -0.06137611098644
  C   5.71713751736958     -0.12680055405167     -0.03274813226684
  C   7.04682828999761      0.36078999311463     -0.03971040100530
  C   8.28432884039778     -0.42272042837705     -0.03167025151358
  O   9.40007800716968      0.06248606139620     -0.03321196739781
  N   7.09417739518220      1.70203431370685     -0.06566655589064
  O   5.75142426554462      2.12474844071410     -0.07841058434446
  C   4.99863147392509     -1.34884123201117     -0.00066330594495
  C   3.59274014371539     -1.30889017279478     -0.01123415966254
  C   3.05213225621231     -2.70986773151139      0.01356018260743
  N   4.25533027633884     -3.50975623334604      0.20283088021719
  C   5.42115202168877     -2.73634534572718      0.04749039328276
  N   6.61883152245232     -3.18896417035120     -0.02266130315166
  H   8.12575815177317     -1.50917197396931     -0.02697110684073
  H   2.53764905549133     -2.94534778261782     -0.92523659475385
  H   2.33601431981612     -2.85302068434379      0.82701494925142
  H   4.27935247293969     -4.42324640901080     -0.22084667598565
  H   6.62463625022188     -4.20404039109814      0.05800389589843
