22
Coordinates from ORCA-job 20022optt
  Br  1.05805846976631      0.05120633006614     -0.07509536118185
  C   2.92883810152804      0.17078053715374      0.00013057321892
  C   3.62979991792451      1.33823214711338     -0.12852095846755
  Br  2.74521577811729      2.98513481077761     -0.36985985711485
  C   5.05052336391301      1.37782390455316     -0.08823015260005
  C   5.71743342606492      0.18158040434930      0.05764938287025
  C   7.20711689643696      0.04120972295336     -0.03197066525595
  C   8.12793059668457      0.22409989343323      1.21621457069034
  O   8.99532401452109     -0.65348227736938      1.37411392799240
  C   8.02605798538027      1.39326181234703      2.05893928152236
  O   8.81272855076652      1.72925994237920      2.93833397897113
  N   6.79602266250783      2.20063129883564      1.83149692096516
  C   6.67939636809341      2.79637242992618      0.60179238095457
  N   5.78430735745473      2.55881548351694     -0.28961929621568
  N   4.99104511255292     -0.96076822622756      0.20402507028569
  C   3.61404441501950     -1.09173830472734      0.20168663908935
  O   3.09218456686539     -2.18683855173983      0.34433726230226
  H   7.54277899866897      0.72819702005482     -0.81449198617889
  H   7.43706812174984     -0.97015087606476     -0.36803571691116
  H   5.97146773005078      1.65978982636952      2.06188398103658
  H   7.42908356836123      3.55620475493731      0.39108915688472
  H   5.48857399757179     -1.83362208263772      0.32413086714222
