22
Coordinates from ORCA-job 20025optt
  Br  1.57637819664696      0.00578682192184     -0.77931619781869
  C   3.44718472186009     -0.18712750105015     -0.31758037607671
  C   4.37819378759789      0.70256514560077     -0.85636738162916
  Br  3.95817042296620      1.82786154162341     -2.31754694723154
  C   5.73419288652562      0.54285675918730     -0.41308117995251
  C   6.02270159869675     -0.52005279962623      0.42663124283756
  C   4.99996719225408     -1.39490923459321      0.86118652033113
  C   5.28521445581076     -2.56194000040988      1.66082427942611
  O   4.45686180158212     -3.36118642012701      2.08284887835843
  N   3.69202003010180     -1.15108922905739      0.50458449575688
  C   7.41943071265056     -0.63974699288258      0.94519392622275
  N   7.77020165469500     -0.52103601659092      2.15539811910922
  N   8.39964896705622     -0.93190358546636     -0.02068153444727
  C   8.62650612776316     -0.11298813544297     -0.95584024272675
  N   8.01025399399575      1.08712964038006     -1.20155394442986
  C   6.75768334684360      1.56122182235774     -0.73268208618964
  N   6.49266122187698      2.80389540754327     -0.70144862858506
  H   6.35592136505370     -2.72111777327482      1.87440960781349
  H   6.94312556953140     -0.34756732249613      2.72573336200230
  H   9.42070141446696     -0.33700443858441     -1.66599021122740
  H   8.49786343690225      1.72324879154427     -1.81204544910409
  H   7.29711709512206      3.36510351944340     -0.97967625243919
