25
Coordinates from ORCA-job 20039optt
  Br  0.90086675489662      0.06611940834555     -0.32361867519301
  C   2.82470309461043     -0.00519920810977     -0.16906772432038
  C   3.47911133382190     -1.23056069847956     -0.13318343484787
  Br  2.55372276622811     -2.87949875387707     -0.27177241941686
  C   4.90755611474441     -1.25704329463545     -0.00262367308593
  C   5.54701176791102      0.03355652595708      0.03896902549943
  C   4.75093572405320      1.17735095839600     -0.01433772521140
  N   3.40001374942374      1.16270959811551     -0.10744978074311
  C   6.96457031237480      0.08127346016926      0.11822346672071
  C   7.70220229371809     -1.09100714291825      0.17623170396654
  N   9.11339851251712     -1.02643085188123      0.26579077406823
  C   9.96739106897471     -2.04552192088132     -0.00651961546239
  O   11.17890559342573     -1.90653229899371      0.03322671614198
  C   9.29725249733010     -3.34814340177384     -0.39261538015567
  C   7.96517026128534     -3.55368388174063      0.32395437067567
  C   7.09520720095004     -2.33962523434969      0.16890127166877
  C   5.69255645344381     -2.40511556477736      0.07243508284634
  H   5.21423437580197      2.15715343528962      0.02269655914897
  H   7.46566965131704      1.04314936517165      0.11322467828585
  H   9.54325103084641     -0.13202557915511      0.44872902651909
  H   10.01386452798010     -4.14656638787269     -0.20474070338037
  H   9.12408100990671     -3.29534239502605     -1.47257059724684
  H   8.16010549525412     -3.75422279328592      1.38651242349783
  H   7.45973638710078     -4.43638180156169     -0.07205471159564
  H   5.21648202208364     -3.37641154212531      0.04865934162010
