24
Coordinates from ORCA-job 20030optt
  Br  0.44888276284611     -0.42185922401396      0.55720590770940
  C   2.80508385233615     -0.05153038446048     -0.22929700314296
  C   3.53243945352556      1.07351094118935     -0.00226524110747
  Br  2.70364868655273      2.78535367863130      0.24774598649214
  C   4.92736829931895      1.00492374419588      0.02619492621233
  C   5.59280939032330     -0.22012325917747     -0.15125784635677
  C   7.01666139294443     -0.07713817882065     -0.04659328131400
  C   7.39275330813376      1.20189567719994      0.17964138224421
  S   6.05875694141545      2.29403953235008      0.29273075988123
  C   4.82213491390794     -1.37287912889921     -0.39720513548638
  N   5.48573798205717     -2.60428466002625     -0.59668477338497
  C   4.97944368436819     -3.80775622012997     -0.25064279702199
  N   5.49628009583555     -4.90652710053048     -0.64020730888096
  C   4.85663490899941     -6.10851406895811     -0.16686460413139
  C   5.83374376180108     -7.04768676180899      0.41136681346510
  N   6.57837124297076     -7.79950247051621      0.85162076954329
  C   3.44480793218449     -1.27319719179374     -0.44230096356807
  H   7.71814788561927     -0.89661262403965     -0.12417036990246
  H   8.39821911412519      1.57463661277673      0.29621782679155
  H   6.33137144688266     -2.62007712683871     -1.14754092440383
  H   4.10100111220280     -3.74715304705236      0.39844689262243
  H   4.38113836109726     -6.63494531045172     -1.00031014477611
  H   4.08159223761189     -5.93115550930306      0.59031451364658
  H   2.84097123293949     -2.14841791952211     -0.66014538513087
