24
Coordinates from ORCA-job 20034optt
  Br  1.28297497136625     -0.45115813576163     -0.43207146389058
  C   3.17226849476490     -0.13190905994563     -0.24527487192277
  C   3.57985112942041      1.09495780804060      0.22081131236623
  Br  2.64900307005826      3.54449265275822      0.31819327634188
  C   4.94729268395636      1.23820736225685      0.31489956474134
  C   5.81457666054479      0.21349953317484     -0.09218898015340
  C   5.26306759909275     -0.97844406647034     -0.51661365952709
  N   3.94236784458328     -1.15788035662157     -0.58712716028053
  C   7.21402766458632      0.70732259049102      0.01749364010454
  C   7.54092806311539      1.86455164073313     -0.90014600291698
  C   7.03744561504657      2.12263885233652      0.51627184667168
  C   8.09585066993882      2.80532732348329      1.35582359185166
  N   9.39625517708597      2.51683216951849      0.73873999055499
  S   9.21142962842807      2.40454876480766     -0.91552104955776
  O   10.15638162396540      1.42633999381679     -1.37506193929854
  O   9.23056533367100      3.71901166346782     -1.48040595937365
  N   5.66434293285090      2.32762649322802      0.78772804321346
  H   5.88170471268417     -1.81646899967154     -0.82090330778835
  H   8.02258695440426      0.06134875058930      0.34065148865415
  H   6.95333332228502      2.09492130837318     -1.77703133849770
  H   8.08715504162281      2.44937275100557      2.38526503366963
  H   7.92830219586870      3.88378425805941      1.35848543454731
  H   9.81489377606702      1.65673752305677      1.07348462814768
  H   5.20539483459224      3.23233917927317      0.72349788234283
