23
Coordinates from ORCA-job 20033optt
  Br  2.32215985915862     -0.71874781574893     -1.55103403422029
  C   3.83649335808920      0.23883643268430     -0.92073576543572
  C   3.78589413980939      1.30266001600845     -0.07505699410960
  Br  2.13020653017506      2.28180955797363      0.10435864406590
  C   4.91024098663866      1.83334795185641      0.61810514150338
  C   5.23828173840679      3.19334187779465      0.68664595581071
  C   6.54609714738895      3.60157877778199      1.01865573921889
  C   7.28346552093751      4.60813573875137      0.44629674794300
  S   9.02256886135097      4.38919834640733      0.26556773799438
  C   8.94512254757006      3.02766188015147     -0.99074065412478
  O   9.23564645229739      3.17188025762363     -2.14925477328462
  N   8.42659991618616      1.86101428428196     -0.46969798566217
  C   7.55215271761731      1.03590166708994     -1.19891807199262
  C   6.48134781854861      0.47180328870505     -0.61999572512464
  S   5.32488742631098     -0.53169653473253     -1.47658677170466
  C   6.02004863801495      0.85239688226961      0.74847598359246
  N   6.52951298251457      0.46930500957591      1.84523199788144
  H   4.57085509409214      3.89631394718574      0.19838125102949
  H   7.09126746366609      2.92686430705751      1.67034416238164
  H   6.83237888850839      5.29963313873736     -0.25529154203139
  H   8.24193128804311      1.90515236604678      0.52019399235596
  H   7.77512164903917      0.93809884353114     -2.25216359512596
  H   7.29371897563585     -0.18449022103281      1.65621855903918
