20
Coordinates from ORCA-job 20040optt
  Br  1.16882962278505     -0.10478882089504      0.03350461143677
  C   3.07607619012596      0.00770668288848      0.04798476172970
  C   3.74853844860088      1.21046909010359      0.00929627651008
  Br  2.75997637268251      2.81523984579646     -0.12170049831065
  C   5.17025602945902      1.21438022246500      0.03934678817653
  C   5.80810651625421     -0.06995354937294      0.05601648799145
  C   4.98329272462003     -1.21208899186692      0.08922378763656
  N   3.67530373549948     -1.18552165673499      0.09559038098718
  C   7.22541009598755     -0.20006432329486      0.03982940562336
  C   8.03497893347070      0.92707503671683      0.02218335859589
  C   7.45948744350256      2.21005286478031      0.03494650078879
  N   8.14098254137350      3.36045276490910      0.04073681373515
  S   7.01803721056571      4.56835031068453      0.08464025495569
  N   5.64720082178299      3.65165688180657      0.08757461136581
  C   6.01999274376468      2.38289891233851      0.05271898746489
  C   7.82302511631350     -1.49340401954366      0.02897284298396
  C   8.34117965803553     -2.58065130772014      0.01467582301787
  H   5.44733648089014     -2.19173252306999      0.11594816209248
  H   9.11155408619046      0.82906130184545      0.00687016828944
  H   8.79643522809543     -3.54013872183629     -0.00335952507095
