20
Coordinates from ORCA-job 20043optt
  Br  1.07206158662083      0.09225966501654      0.02531466748643
  C   2.98757302299090      0.12974412230737      0.01404534725952
  C   3.66826514443891      1.35262845169265      0.01202101501213
  Br  2.75693279989186      3.00181947319578      0.01975727137892
  C   5.06482526752009      1.26848957994180      0.00509131151017
  C   5.68936602102623     -0.01302590379701      0.00173515788666
  C   4.88267871516340     -1.14047394860079      0.00351657855808
  N   3.55106508465411     -1.05521014630471      0.00946631587014
  C   7.09865085799262      0.19340761616962     -0.00313050589615
  C   8.09505751893950     -0.79638449978569     -0.00649715285967
  N   8.90882582805672     -1.61553241887470     -0.00916755013077
  C   7.31418959008351      1.58510363987833     -0.00344292941581
  C   8.41901947705697      2.41431189703824     -0.00657820298633
  N   8.28902305285519      3.76509485992141     -0.00598165475881
  C   7.03759336085233      4.22103306004200     -0.00244742098547
  N   5.89469135193063      3.56552753108217      0.00111264870633
  N   6.05584499599368      2.20087710106560      0.00109131112444
  H   5.31198643791071     -2.13510091176520      0.00000606274905
  H   9.41398066470186      1.98931348049842     -0.00961691550801
  H   6.91136922131988      5.29911735127818     -0.00229535500084
