23
Coordinates from ORCA-job 20044optt
  Br  1.91124783486084      0.13758614122392     -1.19102863741088
  C   3.58945665168972     -0.68610860454893     -0.80153386279798
  C   4.67994456264679     -0.65143970235992     -1.59140379690488
  Br  4.58016190304898     -0.09464453838513     -3.43526714327010
  C   5.85219481357546     -1.24679667974601     -1.00551231200480
  C   5.92277961728128     -0.98225233238980      0.40430513054723
  C   4.80126517956438     -1.73998355736410      1.01163828890299
  N   3.59098275096492     -1.32970517477783      0.44669204299444
  C   4.94398150568374     -2.86989203931179      1.75573781826918
  C   4.14011898512804     -4.07459757655442      1.47917915366151
  N   2.89498841252967     -4.30201993845712      1.61453713208196
  C   5.06716027084281     -4.92761225978709      0.67777054987794
  C   4.93305051697905     -5.05472195673039     -0.63932050539563
  S   6.38159417248379     -5.18186346372542     -1.65349288930919
  C   6.82906919386222     -3.39984141935296     -1.70978003637184
  O   7.90464099576061     -3.06124409878706     -2.09669812357278
  O   5.80711732112064     -2.67496093675329     -1.32601077589200
  H   5.94731362787819      0.08173850100521      0.62551881356668
  H   2.75817414125194     -1.86743042617729      0.65014057360905
  H   5.96364478757510     -3.04757518897845      2.07142206427582
  H   2.47222336325054     -3.54147881446440      2.14858525010828
  H   6.04511954791784     -5.10057039660184      1.11624626000731
  H   4.00176984410335     -4.80658553697585     -1.13272499497229
