24
Coordinates from ORCA-job 20056optt
  Br  1.29137192450507     -0.17482921936137      1.45456083391720
  C   3.13480349013013     -0.13732092037932      0.86563361990470
  C   3.65850503994178     -1.25041013908356      0.21915857945631
  Br  2.73268647408339     -2.86358682746917     -0.11128349965828
  C   5.01841172279581     -1.15831479817833     -0.20431126656763
  C   5.70195824043858      0.04182266910394      0.11622299315459
  C   5.07443604135457      1.09647404145591      0.75438178343556
  N   3.75814624179918      0.97837893170491      1.12836362614746
  N   6.97852401100689     -0.14272603829165     -0.33223004149015
  N   7.14599776994429     -1.33908262712970     -0.99685044476239
  C   5.95032465738299     -1.94087234177172     -0.88471277766073
  C   8.01351461702612      0.85154966510380     -0.35841279179660
  C   9.37930840807322      0.17885757115550     -0.24514404228414
  C   10.49986942567037      1.12249568114942      0.06492775436717
  O   10.37434203880240      2.27740509482443      0.36890891885699
  C   7.95535559650134      1.70257122906751     -1.56278783344445
  C   7.92082108259383      2.38264826630471     -2.54804317371874
  H   5.56201462611299      2.03887123305683      0.96472916075385
  H   5.80695193759817     -2.92616185592591     -1.30041330658521
  H   7.86880855437670      1.49852480703452      0.51172251722741
  H   9.60710356499295     -0.37770251504350     -1.15635356643242
  H   9.34454341653754     -0.57307428039653      0.55091005099536
  H   11.51144034001022      0.66964801163242      0.01727244173668
  H   7.87576077832137      2.98683436143685     -3.42124953555254
