22
Coordinates from ORCA-job 20052optt
  Br  1.11902332809097      0.05294648418333      0.24273360742540
  C   3.04157475634332     -0.04026107735818      0.09557893453945
  C   3.65353915267944     -1.26935699484909     -0.06064998004700
  Br  2.74797827262746     -2.92096987407400     -0.20768035137127
  C   5.07693591075285     -1.28621085814272     -0.13312975047811
  C   5.72121857028103     -0.01305111914933     -0.08720228133877
  C   5.00424855085650      1.15002957312183      0.06203275953796
  N   3.64070811192324      1.12380241639781      0.16985224129977
  N   7.09352430817971     -0.26130229020887     -0.15741676141787
  C   7.30965907503650     -1.66562253334559     -0.19812771952471
  C   6.05720333048478     -2.27496211169755     -0.21324141227495
  C   8.08981736886409      0.67035007882783     -0.15061925656103
  C   8.06220287775568      1.98562835457261     -0.46319482217218
  S   9.65242121797285      2.69490105996071     -0.31755140350640
  C   10.36686893888011      1.15338092175403      0.19223060172189
  O   11.52274388496907      0.96176907143062      0.49294031807382
  N   9.36108940751726      0.22635456853135      0.20147869351094
  H   5.46380809953326      2.12345063025171      0.14054302689529
  H   8.25160338762037     -2.04720269457066     -0.55704359396229
  H   5.88116882101488     -3.33594417445282     -0.28598432860948
  H   7.23133264818435      2.53850660659191     -0.85823286918238
  H   9.51232998043221     -0.69223603777494      0.59368434744191
