21
Coordinates from ORCA-job 20062optt
  Br  1.35626477669358      0.02156822320102      0.52062045147340
  C   3.26421884850082     -0.16692523707525      0.32544654897328
  C   3.84724742472161     -1.42817334692714      0.32440665216852
  Br  2.86811985684190     -3.03732073932317      0.53503780515155
  C   5.23411377140836     -1.49944217431855      0.16430033225170
  C   6.20959406332767     -2.51151274271360      0.09183855103485
  C   7.41137562223052     -1.82293617267078     -0.07781830930206
  N   7.28247201032808     -0.47815267611859     -0.11725960488874
  C   5.96020303878367     -0.26647102555280      0.02784146986458
  C   5.25609932881124      0.96186449247756      0.05927243876983
  C   5.94180166854329      2.19124294759596     -0.04943826551002
  C   5.24038087376546      3.43021331409756     -0.00520757247067
  C   5.79081310838131      4.62848520913081     -0.08613784253756
  O   6.26101121951434      5.68992667103614     -0.15427694137202
  N   2.87620217349796      7.41070904584439     -0.36651110804341
  N   3.08253749208036      6.36179814965107     -0.17542028980316
  N   3.91146448032429      0.96773214349645      0.20231584421437
  H   6.05664192838686     -3.57680759067697      0.15265599844777
  H   8.39258726928882     -2.27184133554339     -0.17698028628001
  H   7.01587631964149      2.15711528474775     -0.16045787175481
  H   4.15997472492768      3.41392755964135      0.10677199961260
