23
Coordinates from ORCA-job 20068optt
  Br  1.16015047542433     -0.32942694616369     -0.47629028317201
  C   3.02352309622324     -0.09587748765326     -0.29619010328046
  C   3.66111030818542      1.08854638581595     -0.28893463731043
  Br  2.70783834323893      2.71499088173386     -0.50188560389703
  C   5.07965504619602      1.06181206454271     -0.15625659355021
  C   6.15089062441504      1.96758526648694     -0.08984884378611
  C   7.29505053913078      1.15830987750801     -0.03098120238360
  N   7.03311669915615     -0.16006979482546     -0.05880311581628
  C   5.68548407554262     -0.24358134677025     -0.12601442987528
  N   5.05260239398687     -1.42475683348737     -0.16514577357392
  O   3.62629504501093     -1.28557506150199     -0.17810622536494
  C   6.08511898523627      3.47019153986375     -0.01387455029877
  C   5.67335266758690      3.95519211841732      1.38637250759507
  C   6.66058474096654      3.71474745178825      2.49524626012194
  O   7.81158605283064      3.41048232439473      2.36700749500481
  C   7.31075226154861      4.13287477579012     -0.47254009515611
  C   8.27983465057103      4.71326067672242     -0.87344089360919
  H   8.31005558465453      1.52550787373210      0.04096483951112
  H   5.29568180444195      3.81304449380790     -0.68812004375759
  H   4.73467304922150      3.46841398514256      1.66565672244648
  H   5.47052095207002      5.03452241058607      1.38860396726868
  H   6.23926213659267      3.87049514393253      3.51226079383427
  H   9.15686046776882      5.20331020013672     -1.21868019095046
