24
Coordinates from ORCA-job 20065optt
  Br  1.18104236251245      0.00290968683767     -1.08776404895672
  C   2.78907753411052      0.10769881010681      0.07040692857029
  C   3.59118802778194      1.25524696831489      0.02030936836514
  Br  2.80081130612991      2.98420518702187      0.08982988335543
  C   4.95147323308135      1.10435550171935      0.02858088798764
  C   5.53358959023199     -0.16343309767717     -0.04970344432135
  C   7.02711430567449     -0.05194573474955      0.03263653812076
  N   7.30033844534040      1.40639790319286     -0.09251557999092
  C   6.04708920240303      2.11763022134350      0.22579631566612
  C   7.80599376250152     -0.79545409206524     -1.03984483687504
  N   7.33187009250023     -1.40804983134110     -2.03480750110958
  N   9.20421811213204     -0.76689689907911     -0.92401228951978
  C   9.97077681258388     -0.16439383409726      0.02759264136835
  O   11.17983656143129     -0.23095703381260      0.03592526024390
  C   4.76479513996537     -1.33383884470342      0.10073968334180
  O   5.13469480597660     -2.48515052135744      0.18527372824707
  O   3.37492166744342     -1.10848973731193      0.19483434843198
  H   7.39150900180924     -0.40961231701799      1.00631096824486
  H   7.51214124799579      1.58685620716981     -1.06794326896192
  H   5.93880668426898      3.00565729775829     -0.39696516864419
  H   6.05673751423777      2.44966994986430      1.26910295148165
  H   6.31375188249479     -1.39418350638686     -1.99456647863317
  H   9.69895807047469     -1.28558602620523     -1.63879606602420
  H   9.39726463691814      0.39836374247556      0.77257917961191
