19
Coordinates from ORCA-job 20070optt
  Br  1.43036988157302      0.40217321763657      0.26366099202749
  C   3.27507758222788      0.06872917842869      0.06341248493098
  C   3.84318265292750     -1.15201240606081      0.10461874169009
  Br  2.81573089767991     -2.72269859786346      0.37303274748284
  C   5.25423476503421     -1.30984732436347     -0.05634210323747
  C   6.07051537146022     -2.41706473166176     -0.05408986026915
  C   7.37718144337122     -1.91209997579976     -0.24853036815159
  N   7.40245692796595     -0.55561761269572     -0.37657911738963
  C   6.13126548504356     -0.15632171758342     -0.26393134012970
  N   5.76027937978177      1.12597988741018     -0.33742849413834
  S   4.18615117153798      1.53056641872383     -0.18640550487096
  C   8.60975617778979     -2.64064371789537     -0.36491298104456
  O   8.76200582089384     -3.84987752388968     -0.34510094758258
  C   9.81868892100493     -1.71238886257575     -0.57751451505473
  O   10.69164086063447     -1.93981185360689     -1.37294824256067
  C   9.95196349970841     -0.47878324685075      0.31095757036421
  O   10.05913738617246     -0.58591867860975      1.50108089518612
  H   5.79414875889425     -3.45149309974148      0.06921872168491
  H   10.06021301629849      0.48113064699880     -0.21919867893727
