28
Coordinates from ORCA-job 20077optt
  Br  1.37389597228026     -0.98503322710631      0.91604555333266
  C   3.15717160599533     -0.50003613961854      0.47927590181632
  C   3.60235417790285      0.76400597935528      0.57433788077433
  Br  2.15424258157547      2.56118042426479     -0.33888500774094
  C   4.97144669247578      1.08852008856746      0.30770356709795
  C   5.76153927971886      0.07859754809979     -0.10375830317184
  C   7.22357302925359      0.19249940102961     -0.45854389968329
  N   7.56238293184844      1.19089413983563     -1.46141317395886
  C   7.54708187011406      2.56762026608802     -1.00522646196638
  C   6.18290398922019      3.17020909137798     -0.63798642729707
  C   5.51261871836700      2.47862416367075      0.55240346978096
  N   5.27871227268537      3.15924803629930     -1.77720969314448
  C   5.47983825624925      3.97626392902015     -2.84955775271052
  N   4.67847353156085      4.26370415135875     -3.79564711987173
  O   5.30582292055475     -1.18321291085815     -0.25558791838446
  C   4.01160701871805     -1.58292212182563      0.05383678511013
  O   3.76046333655723     -2.75280417969796     -0.06615168677403
  H   7.55138475428729     -0.78777108374661     -0.80598627212886
  H   7.79869170721919      0.42524437756059      0.44446779823671
  H   6.94640051483063      1.09571659595783     -2.26245360310110
  H   8.00308871722251      3.17912008889188     -1.78793259706764
  H   8.20186955677143      2.64152403028404     -0.13060399263952
  H   6.37928331766126      4.20598634374899     -0.32619372754740
  H   4.67515256382491      3.09191060461319      0.88384624331665
  H   6.24167192509899      2.44891408367270      1.36954377087003
  H   4.31376046290140      2.89624485808691     -1.57675810270503
  H   6.48089172059217      4.41304593311460     -2.88235580438083
  H   3.77567657451266      3.80770552795489     -3.65020942606171
