23
Coordinates from ORCA-job 20076optt
  Br  0.98166616954845      0.10214115955912      0.26667363144976
  C   2.87357703240546      0.14991026822550      0.10313008748088
  C   3.59107065966423      1.37460119670626      0.13425369949811
  Br  2.62978183467554      2.98450418214802      0.40078796069550
  C   4.98610723521095      1.36509181575000      0.00010024554580
  C   5.59606270670425      0.06265838584725     -0.12405172372586
  C   6.98322016287580     -0.03954441174827     -0.21933598674752
  N   7.83494604922196      1.00032209358598     -0.21107374964126
  C   7.28633963014406      2.19376562648381     -0.12109814985678
  C   5.90815974081264      2.46657104169534     -0.02327541133954
  C   5.59058808977781      3.85403990419802      0.01724388229779
  C   5.47953704656145      5.05425582478864      0.02653186001627
  N   4.88133101555596     -1.09955649336776     -0.14865083672287
  C   3.56092844029068     -1.04277631233023     -0.04891243627617
  C   2.86149795900505     -2.38820429359053     -0.10488032956798
  C   2.20201229109820     -2.64295619322921     -1.38505679223757
  C   1.66875944774091     -2.85585455293682     -2.43746979906537
  H   7.40325508579581     -1.03480805071103     -0.30678838002221
  H   7.95887950290630      3.04646804720962     -0.12540408372691
  H   5.32480360812755      6.10466619422895      0.04390874885873
  H   2.11952965509995     -2.47191646494552      0.69171422449073
  H   3.63129795549672     -3.14296840263830      0.05537661314940
  H   1.19864868128017     -3.02141056492887     -3.37572327455292
