27
Coordinates from ORCA-job 20073optt
  Br  1.39529819769266      0.56587854302009      0.35726838386412
  C   3.17381782282034      0.81241719590128     -0.56452026733603
  C   4.01346476343945      1.83216044821468     -0.14921680393739
  Br  3.25680716731945      3.55797195829450      0.16615376198568
  C   5.39153363865657      1.62059652756822     -0.08175795773297
  C   5.89242592305776      0.33336921754445     -0.24941465366169
  C   7.35070082157858      0.00877419405571     -0.06009618916022
  N   8.24161428129630      1.16710477362421     -0.04143016133875
  C   7.67730908134264      2.24217189163637      0.75842308064748
  C   8.64957072421178      3.41005386757267      0.84234379439222
  O   8.76329667324112      4.06757229244206     -0.40892851611110
  C   7.50347819851354      4.48404188991604     -0.86456441498280
  O   6.63440640938939      3.41897109632114     -1.05837750089750
  C   6.35230968520918      2.74512610631828      0.17724410910920
  C   5.00438864605045     -0.74528431960790     -0.56026666227482
  N   5.24469922439755     -2.00167058443493     -0.64259613986741
  O   3.70549712064174     -0.39062240041990     -0.89055329877182
  H   7.69099735436177     -0.66102332585669     -0.85586583298781
  H   7.50100208154684     -0.53964593956630      0.88196032397004
  H   8.34048319116895      1.51947680188260     -0.98953186392352
  H   7.49783066928698      1.85804887576577      1.76819076932897
  H   8.30173031880735      4.12887343288967      1.59769759317712
  H   9.64555739033931      3.05861927556598      1.10667291163037
  H   7.65305653484217      4.96648619572842     -1.82816176334008
  H   7.07113302643119      5.19257696836682     -0.13757138269836
  H   5.89924538742561      3.47277908416196      0.86170206458687
  H   6.21734566693070     -2.17582406690539     -0.41080338366978
