21
Coordinates from ORCA-job 20072opt
  Br  1.05742285034837      0.01739856949430     -0.39318244159715
  C   2.94950486616876     -0.03683928641975     -0.18271143910223
  C   3.60495602762864     -1.24692772443875     -0.11963904222179
  Br  2.61301072435570     -2.78460648368756      1.32817019217468
  C   5.00375826165782     -1.16137480708402     -0.06200305374955
  C   5.64022368561522      0.08548558840147      0.02291767098874
  C   7.08183188777541      0.13017082930784      0.12069440607739
  N   7.83420474051993     -0.91538958193930      0.10411973411376
  C   7.23148882641180     -2.13041425078911     -0.02399877883110
  C   7.78293959619798     -3.39022505862372     -0.11809404684204
  C   6.71396948336949     -4.29772409356628     -0.27413839878143
  C   5.53376749402336     -3.58949448612625     -0.26751700869329
  N   5.84074344949604     -2.26791612384790     -0.11144431857162
  N   4.96967354919281      1.24489794240503      0.00542941832589
  C   3.65347902626998      1.17546660038951     -0.12080590572689
  C   2.97189516258606      2.44969155927216     -0.20123645092679
  N   2.45451629441384      3.47181164695377     -0.26569506118907
  H   7.54281725226964      1.10868030360680      0.21745127461547
  H   8.83853076276109     -3.59953595693976     -0.08351859704724
  H   6.78796438396014     -5.36787231731955     -0.37739654547360
  H   4.50830167497763     -3.90528286904889     -0.33440160754217
