24
Coordinates from ORCA-job 20071optt
  Br  1.33287696588445      0.22857966287003      0.92134958209026
  C   3.11228213824087      0.11343418607381      0.23010123978194
  C   3.88319617500392      1.27894036727857      0.07414010455064
  Br  2.94056093174499      2.93635930084713     -0.24945917283897
  C   5.28879075207262      1.30910999159611     -0.10055786518569
  C   6.00987348561934      0.16360233329276     -0.32497693636500
  C   7.52047896751371      0.09069610453100     -0.39367332538478
  N   8.20345075922789      1.02174740954717     -1.30212805005528
  C   8.00892269272965      2.43936529282336     -1.02061414959154
  C   6.63282765120467      3.01742406364004     -1.47166854852800
  C   6.01558914030960      2.64056575847893     -0.08759031762637
  C   7.46323981882824      2.63133852178895      0.39923150275801
  O   7.98003767595396      2.93841928121484      1.43265591007328
  S   5.24049969260713     -1.38992479432122     -0.57333919801861
  C   3.58033792378753     -1.21393643118693      0.09353721324153
  N   2.91747052314641     -2.29064868720702      0.35503676436669
  H   7.80792997288107     -0.91531902131939     -0.70301797827285
  H   7.96236278215297      0.23462220508726      0.59913160895522
  H   7.90037618140149      0.82890493900933     -2.25066277233539
  H   8.89950345649319      3.01315585051169     -1.28150282158065
  H   6.17366606140789      2.52165915705940     -2.32508527514171
  H   6.67189152548847      4.09550254939842     -1.62828787345967
  H   5.42092175100482      3.40372566282124      0.40427189891802
  H   3.49191297529506     -3.11332370383550      0.19210845964893
