22
Coordinates from ORCA-job 20083optt
  Br  1.58804062160218      1.35727639041053      1.25073228717346
  C   2.99908888863959      0.30375827407801      0.61084670893958
  C   3.30790540789565     -0.98658784897703      0.99613236424079
  Br  2.02470428851970     -1.93442860799059      2.04057963093288
  C   4.49053424262481     -1.63812799007245      0.63722653202082
  C   4.78127712075596     -3.04610383086065      1.00967153848007
  C   4.87892738682776     -4.05736575869106     -0.05044162882173
  N   4.33556624861253     -4.73548559978284     -0.95758815262526
  C   6.14943335950934     -3.60943207291254      0.52684626337288
  C   7.00829593172592     -2.66357860541383     -0.22927272753326
  N   6.63774121129913     -1.45534597978680     -0.56481923524326
  C   5.44898121634517     -0.95717801839206     -0.16646952346746
  C   5.11818896926434      0.37742636002871     -0.56696046219165
  C   5.71124437112439      1.36583899712190     -1.33502100278097
  N   4.89541876774079      2.43507142519909     -1.36581033228764
  N   3.82228032447394      2.19821400876213     -0.67154475409533
  N   3.94442774435425      0.95189726899322     -0.17760886605946
  H   4.44733220761608     -3.38491744385998      1.98329938976001
  H   3.32478302358627     -4.57665744018739     -0.94323832097079
  H   6.64623560037883     -4.29479051017177      1.20724490719492
  H   7.97333013109400     -3.01472487748610     -0.57726286500986
  H   6.65626293600928      1.33624185999150     -1.84654175102874
