23
Coordinates from ORCA-job 20082optt
  Br  0.49173564243947     -0.59766956981097      1.18272840341394
  C   2.66362004406825     -0.36388397762326      0.04921736453527
  C   3.51177981754307     -1.39241330730951     -0.01105566255215
  Br  2.92102422498319     -3.22446076663753      0.00098096196832
  C   4.91669991485826     -1.19635409123486     -0.10693094245788
  C   5.54491714034072      0.05150361018967     -0.12802631236369
  C   6.93202308766662     -0.24914113782138     -0.23246360911064
  N   7.93369328681796      0.68219566413939     -0.24986399358501
  C   9.27868781218105      0.30393174970734     -0.56746624973696
  C   9.43551033692842     -0.15801651425799     -2.03151204327504
  C   10.81939698340098     -0.50474500339304     -2.33686012364178
  N   11.91928117891895     -0.75464867299528     -2.54477119635632
  N   7.14775702499623     -1.54728799841365     -0.28881442235129
  N   5.89764407419341     -2.10408849577279     -0.20408494702659
  C   4.90985969012335      1.32710632316346     -0.10893169753623
  O   5.48736378819734      2.40307114886357     -0.17726535304057
  S   3.11525343981751      1.27480561131980      0.00595808085799
  H   7.61589840815167      1.63157350236464     -0.38588213797805
  H   9.58443892198044     -0.51602047817593      0.08511865600484
  H   9.93659278024428      1.15070468852775     -0.37598031146220
  H   9.11585897428052      0.63370088258005     -2.71057538174978
  H   8.79995690264146     -1.02907228072661     -2.19549703531665
  H   5.78300652522619     -3.10279088668281     -0.20802204723951
