17
Coordinates from ORCA-job 2008optt
  C   0.96878242378285     -0.01895901350594     -0.01315164283403
  C   2.48857329730949      0.02653299167270     -0.05294385152623
  C   3.07837712615250     -0.75090113485662     -1.22083688017320
  S   3.09538537733281      1.71965150448200     -0.02169070943902
  C   2.61369327614442      2.45318151542914     -1.55433135517483
  O   2.41470966412153      2.39943277289329      1.05908696802581
  O   4.53937942414015      1.65050818618212      0.02220041587864
  H   0.57551308542752      0.58536763459436      0.80427681542964
  H   0.64073546239550     -1.05215484593768      0.11711048574811
  H   0.54686145044435      0.34103122824437     -0.95404776891326
  H   2.90689786451948     -0.33020924413507      0.89493516447034
  H   2.64858563539767     -0.41035242071553     -2.16522405493237
  H   2.83424278463459     -1.80958569698964     -1.11341550704848
  H   4.16273252925754     -0.64298238790868     -1.26786590761908
  H   3.09111719650906      1.92593751928104     -2.37968661594674
  H   2.97368876101155      3.48272238592361     -1.50833111439870
  H   1.52772464141897      2.43877900534654     -1.64408444154660
