22
Coordinates from ORCA-job 20091optt
  Br  0.96200357192708     -0.16053850801244     -0.05580753649572
  C   2.84096952051546      0.05036100260077     -0.04976482324138
  C   3.51954082591405      1.28494285673127     -0.04981325778990
  Br  2.50126897692709      2.88083103850635     -0.05804988391626
  C   4.90259535242916      1.32662507260726     -0.04512103511931
  C   5.70057093662825      0.14421255502829     -0.04251401234423
  C   7.10996634621822      0.41841127991351     -0.04024327891693
  N   8.14471418156133     -0.38215449618865     -0.03901960887316
  C   7.23392915639908      1.87681346189789     -0.03989709114322
  N   8.28104465095612      2.60821369350338     -0.03826162420391
  C   5.84988736332641      2.47209695671509     -0.04145746605184
  N   5.58882012654622      3.71130119508269     -0.03832234825489
  C   5.02583099336352     -1.09373191936830     -0.04275043345872
  C   3.62442437449102     -1.10213621142031     -0.04565900576890
  N   3.27837843976059     -2.42736438858778     -0.04426319261002
  C   4.45071111705760     -3.14759098292566     -0.04098508559097
  N   5.50601396952558     -2.38933531841045     -0.03990554582891
  H   7.82383824719933     -1.34875850415315     -0.03967907742334
  H   9.09335163149551      1.98632580724169     -0.03723812235218
  H   6.49182938337962      4.19907595384333     -0.03517393663081
  H   2.33753786925924     -2.78133580324807     -0.04554755736910
  H   4.44977296511948     -4.22626474135669     -0.03952607661629
