26
Coordinates from ORCA-job 20093optt
  Br  2.30344610283577     -2.16012981437236      1.78577875663549
  C   3.87524787606832     -1.45207298226457      0.97950672515943
  C   5.00513920805358     -2.16571822792423      0.85039361698781
  Br  4.86806828253793     -4.71263837427995      0.44855134331488
  C   6.19638677267573     -1.63993371474718      0.27121368427552
  C   6.14406803426442     -0.35742028399136     -0.17699322408828
  C   7.27571190556616      0.40044836986325     -0.83091951017445
  N   7.73728040190423     -0.18921196842613     -2.07635651964766
  C   8.69924897979645     -1.00703551496268     -2.05307329715232
  N   9.40636610264389     -1.53023470834158     -0.98411936513218
  C   8.82225982868956     -1.99466685058907      0.28683719975266
  C   7.38988250043194     -2.55605341181576      0.18244916657747
  C   8.99902393637588     -1.04731699523177      1.39669744139394
  C   9.14520306131303     -0.31002579873927      2.32899778934871
  N   4.98217733807383      0.35223847198046     -0.03775673718650
  C   3.78889992168145     -0.07796748840532      0.53753764473006
  O   2.84673739527838      0.69825004532703      0.61466999351581
  H   8.09528845035647      0.52817209258532     -0.11851243308497
  H   6.91305994357398      1.40038840812630     -1.07728280529867
  H   9.08659341990247     -1.34747346854308     -3.01417055906686
  H   10.14099070966152     -2.14316560699635     -1.29432616400950
  H   9.43551458794950     -2.85847568784769      0.55460649434634
  H   7.27256048157493     -3.27727131049323      0.99058982704808
  H   7.33778566533059     -3.15144166174725     -0.73358238397688
  H   9.25082087332986      0.35225319718211      3.15389833380518
  H   4.94023822012991      1.30050328465439     -0.37963501807307
