23
Coordinates from ORCA-job 20103optt
  Br  0.85873855394017     -0.31429019433520      0.58522666372016
  C   2.70925819731418     -0.08958154875273      0.22460112996335
  C   3.22139905676985      1.14849439442069     -0.21764462191121
  Br  2.11931824124327      2.64248038788093     -0.53657051883050
  C   4.58480221192452      1.27496034497944     -0.46796949862472
  C   5.28682311251170      2.44027403451065     -0.94225661919559
  C   5.68486548921790      3.03928970607411      0.31689179851933
  N   6.82256969078302      2.78350041014524      0.87036215598911
  C   7.54000944702077      1.71163769645957      0.33471406510813
  O   8.76039367786502      1.74034544712163      0.25559842573539
  C   6.84413246995723      0.41737775174380      0.00996504149162
  C   7.64468641780915     -0.71211442093147     -0.07676314559913
  C   7.13369383514864     -1.99688434499966     -0.10144215143577
  C   5.74871278589780     -2.16724802304257      0.06530015212359
  C   4.91174570715705     -1.07567377589873      0.10490904034956
  C   3.51199840468174     -1.17768358951862      0.35091236705724
  N   5.42298395055251      0.21596361620326     -0.11092962167481
  H   6.18014199377952      2.11828098624535     -1.47832152228073
  H   4.97847695909760      3.65066641433682      0.88408850315462
  H   8.70966522408064     -0.52918993874802     -0.05925352314600
  H   7.79293068343983     -2.85172528012836     -0.16119371091169
  H   5.30589857412336     -3.14629230195018      0.19107648251825
  H   3.11175531568446     -2.13858777181596      0.63669910787979
