24
Coordinates from ORCA-job 20100optt
  Br  2.57710254321581     -0.57320133383925     -1.38249961562113
  C   4.05765896914195      0.44641352381616     -0.70116898880787
  C   3.97086780380276      1.45653309682512      0.18768882264147
  Br  2.25572346913825      2.30308157035631      0.56251946317351
  C   5.16999239312387      1.97252807817337      0.75346979708555
  C   5.46526730111905      3.33937486754427      0.91429191206214
  C   6.65925341035419      4.10296529618723      0.94453896117158
  N   7.96567310566743      3.97882256739208      0.78670563091445
  C   8.76139350811125      3.01356605010117      0.26218414194111
  N   10.00557911774446      2.93934033148502      0.57515115833368
  N   8.17443845378094      2.15752692605406     -0.73238093128572
  C   8.55908491600636      0.82516563068748     -0.85857710463975
  C   7.73494483615885     -0.22379859609151     -0.67484350628049
  C   6.38448679895891      0.11840165010788     -0.20418437452649
  N   5.30395368228840     -0.05736532413611     -1.05993532385891
  C   6.18527570196135      0.93385723028657      0.85610137409368
  Br  7.38714499760187      0.97415023045467      2.32022859405089
  H   4.58457190190882      3.97140966672727      0.96845162311668
  H   6.40816413067121      5.14280672695006      1.16837776191581
  H   10.46000188438672      2.19890415884360      0.04916081182437
  H   7.17357453557167      2.29228769038802     -0.76100184733879
  H   9.59399114053968      0.65777736394220     -1.13749914472179
  H   8.05845806919656     -1.23278673314873     -0.89413425831159
  H   5.48739732954913     -0.24376066910706     -2.03664495693238
