20
Coordinates from ORCA-job 20109optt
  Br  0.93841954430689      0.31566061362274     -0.05704041387604
  C   2.81841357014988      0.29394804133345     -0.14163162368246
  C   3.60607085978494      1.46364603416422      0.00731288236203
  Br  2.82867592059014      3.15795750191361      0.26219389303793
  C   4.97439053816059      1.35545039415506     -0.03747815924181
  C   5.56588627701676      0.08316505549436     -0.23663053629809
  C   6.95617275933544      0.04867209230608     -0.27001829961151
  N   7.74506554543503      1.11539638414661     -0.10796507735993
  C   7.18847633085240      2.32203934358518      0.09723263928360
  O   7.76181938475542      3.36455590750423      0.28314970317272
  O   5.76514386870151      2.43592228714766      0.10115382966040
  N   4.79660074784364     -1.03602403221703     -0.38735630476786
  C   3.50004479008051     -0.90701654844399     -0.33391489687963
  O   2.73361327624557     -2.04024838186726     -0.46507814440009
  C   3.43618903832237     -3.22917477006711     -0.69538467502512
  C   3.90663925094346     -3.36116027853296     -2.08893170501871
  N   4.24125209136180     -3.53159181767467     -3.17115593419562
  H   7.44154366336900     -0.90830792047789     -0.43516306231515
  H   2.73102816897819     -4.03700740611428     -0.50478339885188
  H   4.30155437376635     -3.31888249997799     -0.03851071599277
