20
Coordinates from ORCA-job 20105optt
  Br  1.31526155746079      0.07983540343228      0.27083763042236
  C   3.20332549685323      0.11140163123978      0.10118654351457
  C   3.94311047640740      1.31303228565763      0.10319766901205
  Br  3.12084274493030      3.00188956797773      0.26274337270606
  C   5.33083014815807      1.23609532358447     -0.01570462117659
  C   5.91682760375170     -0.07252349059233     -0.13725187242908
  C   7.30323468885083     -0.11612178647402     -0.25958498275253
  N   8.07750257193541      0.99825431455455     -0.27224907372303
  C   7.40626893742217      2.10884771182607     -0.15083134694060
  O   8.19445529873532      3.28185979916138     -0.22965862404963
  C   8.79832270775514      3.67913294658138      0.88268314898057
  O   8.71600292473384      3.18228012468156      1.96699069805454
  C   9.62027391238265      4.86468034404931      0.61866683687212
  C   10.30348863339678      5.83149890347570      0.44845043340231
  N   6.12416423130321      2.34394874356819     -0.02396022129130
  N   5.18132554463548     -1.21944356777768     -0.14063525447675
  C   3.86520997456203     -1.09653977762689     -0.02130694061125
  H   7.79622890731634     -1.07527847589771     -0.35482275230913
  H   10.91077312792704      6.69026215045758      0.29304234381843
  H   3.28255051148218     -2.01211215187901     -0.02179298702312
