20
Coordinates from ORCA-job 20112optt
  Br  1.06066952640284      0.07692669855907     -0.12434774895507
  C   2.93714485145243      0.15439920267923     -0.01586290340804
  C   3.66103811678833      1.29003680115671     -0.07557192261802
  Br  2.87925887746929      2.98604963808820     -0.26165638913317
  C   5.10068894202588      1.15992171269637     -0.04246665960256
  C   5.74755687723377     -0.04713249350190      0.02146381491516
  C   4.93037232640071     -1.24283173767263      0.30119420234012
  N   5.23816991169955     -2.40023003861565      0.72280134545558
  N   3.54787693583988     -1.04273911531371      0.11184554818397
  C   7.21005088609946     -0.04366919428978     -0.00787529983821
  C   8.00149563369171     -1.18212272118538     -0.37125022752264
  O   7.59369008384367     -2.27883399527317     -0.77286459467730
  C   7.81432281174317      1.21851950233564      0.20432567749972
  Br  9.68165624997162      1.41123572521197      0.47235036022775
  C   7.12477014315361      2.44960749013127      0.18034954857648
  O   7.53356443366918      3.57886733166552      0.31960811100696
  O   5.74335958858697      2.33725285737427     -0.09382986409209
  H   6.24134831031499     -2.54314925966777      0.70030108092156
  H   2.99849339460149     -1.87333848522575      0.27355669659644
  H   9.08447209901132     -1.01176991915251     -0.30707077587664
