22
Coordinates from ORCA-job 20119optt
  Br  0.95582914899271      0.10152396807325      0.51876764078802
  C   2.76721022163405      0.08813453215093     -0.07982835729877
  C   3.52403391367366      1.27422542908663     -0.13372718430231
  Br  2.56680558374803      2.91195284080177     -0.30814211321024
  C   4.90747544597691      1.24878246763943     -0.11035074991633
  C   5.58837557577146     -0.01652524877296     -0.00029780937817
  C   6.97768797918461     -0.05727060906680      0.20070624805056
  N   7.76940593969726      0.98716810317815      0.23066079622123
  N   7.11741427910814      2.16856723469865      0.00683528430048
  C   5.78442935067430      2.44048829081613     -0.16809154743315
  O   5.44368527116890      3.60131079496346     -0.34148396739077
  C   4.81779341834347     -1.22228592419590     -0.13710178829334
  N   5.52669356895452     -2.42733954627450     -0.33262944397231
  C   5.46035594907008     -3.52152053565573      0.48326164512434
  N   6.13425315390589     -4.59895177097451      0.40414088351163
  C   3.45521335788835     -1.15024767201630     -0.17365548042415
  Br  2.45908364309284     -2.74173080042540     -0.54059458276510
  H   7.47399982710213     -1.00555436604847      0.36465890198012
  H   7.70798592981626      2.98446684983311      0.00626558802063
  H   6.29028929805414     -2.38989009333174     -0.99405648811222
  H   4.72702971967975     -3.41001878555103      1.27926022988785
  H   6.76894942446238     -4.57628515892814     -0.39559770538798
