23
Coordinates from ORCA-job 20115optt
  Br  1.35027081766533     -0.74195850272019      0.77107282684794
  C   2.94275011692315     -0.11418836841310     -0.46579966826621
  C   3.47373668138645      1.15374085895937     -0.23471664301217
  Br  2.28698269682021      2.59766398162333      0.03580266321402
  C   4.85820075725068      1.25016921945762     -0.12225120388210
  C   5.65354027895717      0.08821246872455     -0.08139043847966
  C   6.96575070156728      0.52595091789928      0.17915999856344
  N   7.04248594496063      1.82502291363138      0.27616609004314
  N   5.74825831195466      2.28683684609464      0.07016791615155
  C   5.63197706975348      3.65313748082491     -0.14550031141305
  N   4.88824793879124      4.21250907643983     -1.00925401157353
  C   5.07667198261920      5.64914042688245     -0.79917281137479
  C   6.40452395246261      5.76766582757694     -0.02650315725340
  N   6.42239186023052      4.47673609132550      0.65418765964910
  C   5.11333158283357     -1.20655959861263     -0.34229475243867
  O   5.68580192068468     -2.26693272605753     -0.37139952604922
  O   3.76072755080025     -1.18109957487323     -0.65497318718688
  H   7.85195592478682     -0.07962434648581      0.28972268133666
  H   4.24420737993759      6.03413434354016     -0.19991069551555
  H   5.08566601384821      6.18391538791318     -1.74805611824992
  H   6.41870834964538      6.59765104200704      0.67857473451772
  H   7.25061109048512      5.86812643083265     -0.71618067103820
  H   7.30820107563563      4.06774980342959      0.91754862540977
