22
Coordinates from ORCA-job 20113optt
  Br  2.12167727464157      0.23393962625475     -1.78607369858292
  C   3.68807610040141     -0.04096318075615     -0.77835367007161
  C   4.79158459950529      0.73032915614922     -0.83948573656470
  Br  4.90834349075020      2.21791966450286     -1.99217470175628
  C   5.92202709740785      0.36864213294451     -0.01683693749130
  C   5.89724958330630     -0.70993717228524      0.81143432085411
  C   4.66076501364088     -1.51230944455455      0.92459623020217
  N   4.40292306021528     -2.50503026116110      1.67491434952121
  N   3.64016516900205     -1.11184091664493      0.05174766346160
  C   7.03380634214991     -1.15128208583011      1.67784091670168
  O   6.77481646722430     -1.41366254463696      2.88570302351758
  C   8.32378921444484     -1.46984343443959      1.14146702208514
  N   8.87991065153266     -1.30722959586019     -0.03623911719775
  C   8.42363150812983     -0.40979954510085     -0.96543117828247
  N   8.29192668678243     -0.60313671891096     -2.21943643680136
  N   8.25758604756151      0.92277140957832     -0.47390226385398
  C   7.12286088832002      1.25396968193117     -0.05129564884066
  H   5.18892577316741     -2.65779867130511      2.30315073106909
  H   2.79717838409534     -1.66228646054781      0.11538250469506
  H   8.90787261025287     -2.04122473102785      1.86280868565567
  H   8.50193252317371     -1.58348312774930     -2.40123578407841
  H   6.97995151429421      2.27125621944989      0.31841972575813
