21
Coordinates from ORCA-job 20116optt
  Br  1.04538905558577      0.22430793496498      0.02368803646862
  C   2.92939312464009      0.03860558916181      0.02197451583770
  C   3.55930489057652     -1.17710439217773      0.11717886603197
  Br  2.58171405998171     -2.75020916254990      0.38227905444710
  C   4.98074267373305     -1.22832796687959      0.11287262516265
  C   5.98397455384482     -2.20568855249563      0.17710401100676
  C   7.16865179879322     -1.44816249869291      0.29337829985034
  N   6.97053193737334     -0.13706962937458      0.26024571085803
  N   5.65411862321669      0.00599390435406      0.14517807256875
  C   5.02496248202636      1.21949327013100      0.04657447024094
  C   3.66710228637622      1.24479565813882     -0.03952523042116
  C   5.81615417663852      2.40340239250926      0.04169637353099
  C   6.44182537236511      3.42603488828765      0.03432514510841
  C   5.91298718580321     -3.66954936534104      0.01321732898629
  O   4.97059256233110     -4.21363772939387     -0.62923275045357
  C   6.99137109909911     -4.46146384436482      0.55021938902515
  O   8.00050148828034     -4.06886785033000      1.16231734721669
  H   8.16342268540351     -1.84787906611849      0.38960706930715
  H   3.16186600502366      2.19369507275282     -0.12512954708440
  H   7.01363579826649      4.32205703431159      0.02989052106605
  H   6.84075814064112     -5.53942568689338      0.35114069124555
