21
Coordinates from ORCA-job 20110optt
  Br  3.11911607586698     -1.08248550382051     -1.43352709952187
  C   4.41190091028807      0.11169683622630     -0.75302884008140
  C   4.16084479942827      1.33967737710691     -0.24681132884696
  Br  2.38076611583467      2.01398909915617     -0.26578772527700
  C   5.23247892198746      2.13226808302592      0.28176303162456
  C   5.08384946202595      3.54614342463898      0.43217173445101
  C   6.02210338768187      4.51439699337714      0.33083398133773
  N   7.32431988791367      4.30632276221995     -0.06445183971035
  C   8.42692827189538      4.71674137558807     -0.22086464203419
  O   9.53111259909765      5.06607815314585     -0.40342311345455
  S   9.63824328901719      0.89758768205788     -0.75845959004296
  C   8.95833806781988     -0.40576559346550      0.04600876957348
  N   7.70543261113088     -0.70493596035205      0.30507312559496
  C   6.68481366100112      0.15291512061985      0.06625602295827
  N   5.69221681765813     -0.37707164403360     -0.74889880003873
  C   6.42583072347064      1.39408912591612      0.60175500943877
  Br  7.54395404788618      1.97813669417237      2.01077848095056
  H   4.07998160204854      3.91144031728946      0.60981675359877
  H   5.75015577784026      5.54665047695034      0.51363971616003
  H   9.64445778327593     -1.17909877163807      0.39701319106366
  H   5.90015518683104     -1.26777604818165     -1.17085683774380
