25
Coordinates from ORCA-job 20128optt
  Br  1.03527078837765      0.02228636262171      0.37813502085360
  C   2.72673199880935     -0.51821752559282     -0.52978611243397
  C   3.47228546456533     -1.57095820117243      0.00534168189836
  Br  2.62075648227962     -3.18751479495356      0.53646295258209
  C   4.83912942358924     -1.43376535834862      0.04580844256714
  C   5.45660942067883     -0.23373985657795     -0.31437643896839
  C   4.72578010521106      0.82182325705115     -0.93366797194218
  N   5.09656482435672      1.93589547913658     -1.42840440502125
  O   3.35483365137472      0.56954832506866     -1.04184893611500
  C   6.91562330610912     -0.54102700056483     -0.31298691745912
  C   7.03902928880573     -1.52398144327247      0.86183466787456
  C   5.95135912494217     -2.43314872857126      0.25970642594874
  C   6.58642806743042     -2.65188826982683     -1.14077141963876
  O   7.24867552761868     -1.41886619067696     -1.42954052901261
  O   7.75468850427275      0.57719958164496     -0.36652945261909
  C   9.08433242472556      0.35111338510181     -0.40416777318775
  N   9.94874649496133      1.26283538084652     -0.35431701550743
  H   6.10163622513529      2.02030561315824     -1.31109460425710
  H   6.75615191170633     -1.07817590652619      1.81133751790861
  H   8.01985099632522     -2.00001899524109      0.91636423278808
  H   5.68847359244081     -3.34551628161216      0.78705465993633
  H   5.83087716044768     -2.85860784333739     -1.90022834319117
  H   7.32664485576410     -3.45716756013301     -1.12528035390397
  H   9.36624906558650     -0.69420658575507     -0.49510540121105
  H   9.49027129448560      2.17279315753305     -0.28393992788866
