24
Coordinates from ORCA-job 20122optt
  Br  1.54885834795354     -0.51946574757617     -0.26316276123336
  C   3.42791584201776     -0.32129959817389     -0.09597908962822
  C   4.28023369141367     -1.39736247966561      0.00759948144424
  Br  3.57023037417390     -3.16807688552921     -0.01784308255290
  C   5.69744007440767     -1.23489934818374      0.11020043490809
  C   6.23023461094646      0.05302468910976      0.12644425047479
  C   7.64890113851759      0.33819483214492      0.37098285769663
  N   8.71172232716460     -0.25974628666122      0.00987152035777
  N   8.55061334445854     -1.42744628136691     -0.76918612497696
  C   7.83176673107057     -2.48157164871603     -0.16885095576121
  C   6.56356255921161     -2.40508633537649      0.23738400696966
  C   5.38019381849758      1.18772567767279      0.04576731656274
  C   5.63039776905250      2.54454710925847      0.06063359161421
  C   4.36063563879583      3.23947045069055     -0.05170653742668
  N   4.12563325852208      4.52971148202164     -0.07926955053348
  C   3.32009478382726      2.23245788267653     -0.13862420909281
  C   3.92536504895006      0.99843561172833     -0.07915143115269
  H   7.83759830564660      1.24928871835645      0.93421549165950
  H   9.48429167129737     -1.72868385208041     -0.99982537804244
  H   8.37638030833029     -3.41350881665464     -0.05320154234139
  H   6.14134536647496     -3.29992400916779      0.67163002687628
  H   6.58967970614661      3.03954956870214      0.10798006825939
  H   5.01604729707546      5.02408290841433     -0.00158538445441
  H   2.26685798604741      2.44558235837620     -0.22532299962675
