28
Coordinates from ORCA-job 20129optt
  Br  1.23206113167482      0.30803361015001     -0.73870247787282
  C   3.01111200089927      0.05750363453598      0.31312607170164
  C   3.67399890079704     -1.15827635483638      0.19021563417590
  Br  2.72690612879112     -2.79089188416742      0.42402430799411
  C   5.04906091714944     -1.15700935452823      0.02965226284748
  C   5.73996832873817      0.02519448939147     -0.15276204408146
  C   5.07463446414475      1.28338368345818     -0.05249687309213
  N   5.52926712469667      2.47727988354817     -0.14457562210103
  O   3.72599794243926      1.20529876997829      0.26599303833626
  C   7.22702289049547     -0.19326023431379     -0.14304568227178
  C   7.90039257562899      0.20207791656979      1.18828234703786
  C   9.35773591705930      0.51350543595332      0.82748404165728
  C   9.23126359770226      1.24641840371629     -0.50814881685385
  C   8.05508863774318      0.55985586891277     -1.19311873632345
  O   7.84904460673422      0.56676500526562     -2.37618937696347
  C   7.31581240553487     -1.71518310431068     -0.43454714522811
  C   6.00878082151740     -2.31274924784809      0.11016763428596
  H   6.51024541092406      2.44429052390069     -0.40488087434119
  H   7.79583064661550     -0.58269877920637      1.93889740656447
  H   7.41510035491144      1.10260577425111      1.57511137425466
  H   9.91972686590431     -0.41411209193570      0.68889060306137
  H   9.86932914667340      1.09852134914322      1.59158674746476
  H   10.11311322322686      1.23894356939198     -1.14657360900075
  H   8.94429654894919      2.29017623263553     -0.33998111058346
  H   8.21148800075966     -2.16690073437883     -0.00187130533561
  H   7.34882180844896     -1.84890466161623     -1.51698484261872
  H   6.10508283429632     -2.63456761546645      1.15227919468240
  H   5.67181676754381     -3.17930008819427     -0.45983214739632
