23
Coordinates from ORCA-job 20125optt
  Br  1.38561083083297     -0.20015346559826      1.23916997982207
  C   2.90869299472530      0.01635690031335     -0.04187309835435
  C   3.59264414859066      1.22076272446101     -0.09158442469837
  Br  2.53893726816643      2.80030620416218     -0.25423992463512
  C   4.99248060562046      1.35635803985496     -0.09197781633181
  C   5.66964191343406      2.55547832773144     -0.19872607866222
  C   7.08031878788206      2.63868992814243     -0.09607417334303
  N   7.86591474031636      3.66129832205265     -0.14977871550593
  N   7.70667728521320      1.41245379893232      0.12020271750975
  C   7.13090337027256      0.17326337541387      0.20458068363362
  N   7.78728065433669     -0.90648701476476      0.40771562023310
  N   5.74204597060923      0.15018285448440      0.04592173374682
  C   5.09155602567820     -1.08551015380118     -0.06335731930510
  C   5.51933581309217     -2.38932207817883     -0.22359951171528
  C   4.32221297316142     -3.11673409826058     -0.34721493752658
  N   3.25013092499804     -2.35357034823139     -0.27713348729593
  N   3.73026344043868     -1.11119673376893     -0.09340729058591
  H   5.10771008751504      3.46650818249006     -0.30578863733450
  H   7.31358204623714      4.49985544329151     -0.29945265229790
  H   8.70730908441369      1.46266715388456      0.22517448483397
  H   8.77702835792788     -0.69671240362690      0.48681897401336
  H   6.52994853570817     -2.73945031700391     -0.22755563399842
  H   4.20677414082871     -4.18104464198004     -0.48182049220229
