19
Coordinates from ORCA-job 20134optt
  Br  1.20896494078695      0.50411691724867      0.08197667901920
  C   3.04164635691232      0.11365550516074      0.09208838081493
  C   3.57751646405751     -1.11680078633854      0.05692509293188
  Br  2.52733731277322     -2.67423491250975     -0.04236189456140
  C   5.00655614196497     -1.25137727267588      0.08597297773237
  C   5.90974682856001     -2.30535635109117      0.08486523290491
  C   7.22027970379481     -1.74031357873209      0.09549059812612
  N   8.42099406658916     -2.18637542846444      0.09841471535067
  O   7.06998992546283     -0.33877807657862      0.10362618656314
  C   5.75562928695280     -0.06113776187089      0.10149804767650
  C   5.15537164149664      1.17292948492681      0.10927439748200
  O   3.76591933973509      1.25281938865445      0.14939793901986
  N   5.72797282526601      2.41052373317761      0.08870289593841
  N   5.03512842912402      3.55011187828574      0.10650837145725
  N   5.95409360623150      4.48043734873291      0.07337517294203
  N   7.14092152627248      3.93702891376756      0.03909355220188
  N   7.04099978596064      2.63490017736522      0.04740931252722
  H   5.69393085471042     -3.35973882421509      0.07460505650433
  H   8.38900096334847     -3.20141035484326      0.09213728536870
