23
Coordinates from ORCA-job 20139optt
  Br  1.01683454447415      0.20404471519354      0.42316257152410
  C   2.91117258695010      0.21059089947163      0.61363253864649
  C   3.70936893676877      1.27927406864621      0.35085614156972
  Br  2.84520401123721      3.00418126225508      0.07105733765183
  C   5.11375376190203      1.22544971359200      0.22629531007479
  C   5.80609023771523      0.02225363909338     -0.12769668690066
  C   5.16845461513997     -1.28820237405260      0.09045602969674
  N   5.56702794858512     -2.46505474005577     -0.16696794108387
  S   3.60698417475528     -1.32232007729977      1.00277494268454
  C   7.11898565300965     -0.01801936029031     -0.73202493432822
  O   7.68442565240549     -1.07927963895205     -1.04637660314112
  C   7.96934917121935      1.20504371587928     -1.11988660404961
  C   7.65183122284204      2.55950585020111     -0.54069324966264
  C   6.30377006765220      3.15594769033451     -0.95272819594680
  C   5.84113566697660      2.53452225936927      0.37852256617732
  O   7.20737503160384      2.40815247332753      0.81971302068379
  H   6.49403803161878     -2.40293233133884     -0.59005458467805
  H   7.96979199131435      1.25365057734425     -2.21384096759471
  H   8.97942533520013      0.91562827301820     -0.82492186396204
  H   8.51682872301425      3.22430227426824     -0.60525591918445
  H   5.83712077720831      2.77326952026639     -1.85773936254043
  H   6.28817597764425      4.24436075628529     -0.93699328269698
  H   5.29285588076274      3.19363083344340      1.04570973706028
