22
Coordinates from ORCA-job 20146optt
  Br  4.35312689437837      0.03137033922410     -0.01076092005607
  C   5.71132615003794     -0.71993642321506      1.05648140756331
  C   5.92226165966832     -0.46548317639481      2.36385112395955
  Br  4.96205233999613      0.90762436067985      3.27141362728166
  C   6.89095658803338     -1.24849334367991      3.05594280875691
  C   7.25346708830411     -2.45280932172098      2.38464202117777
  C   7.32538546816537     -2.44760088620056      0.99941472741152
  O   6.49397452245637     -1.55004838444383      0.33633197942290
  N   8.09874832599050     -3.10475440841192      0.17842572806631
  C   9.27527256848018     -3.63558556238732      0.57848005498953
  N   9.82045916480259     -4.63407058890022     -0.00689212668396
  N   9.98609062807066     -3.06647440732629      1.73575637900494
  C   9.76063230375091     -1.81909928514384      2.27148798618118
  O   9.64544716631685     -0.78956450236593      1.67833978057405
  O   9.76839456109463     -1.91605489484474      3.65423608945711
  C   8.97256303795210     -1.05800928864329      4.39555925956297
  C   7.68133228688904     -0.75203162853652      4.14399920033034
  H   7.78962257955277     -3.21742804522108      2.92049672750619
  H   10.75125279934652     -4.77901047969423      0.37421405590143
  H   10.12659352403813     -3.76249142077870      2.45281957902979
  H   9.50274656114062     -0.65150377170080      5.24483283789993
  H   7.24929378153417     -0.00454488029382      4.79992767266255
