21
Coordinates from ORCA-job 20163optt
  Br  3.83817883675022      1.94108529762431     -1.74766262339537
  C   5.17293444787393      0.59432791260584     -1.68229131145211
  C   4.89897504224812     -0.72123830856720     -1.82659702318570
  Br  3.15984836689453     -1.29347373642989     -2.34416938530511
  C   5.88459012040134     -1.78512082741103     -1.54414859688988
  C   5.68271203938069     -3.12418622039701     -1.66319032153735
  C   6.82705095336737     -4.07486760046838     -1.64134880230494
  O   6.76404547531466     -5.17311165999198     -1.13156364207274
  C   7.98435142408028     -3.58253357819665     -2.45844367270636
  C   9.09570379458479     -3.02735320647140     -1.98664138403658
  N   9.99749145050292     -2.35646349876268     -2.82082635898466
  C   9.69384029589798     -1.28006803812085     -3.41428703039647
  S   8.25736349040863     -0.24325108609889     -3.35419234523245
  C   7.76609749457907     -0.12517836923029     -1.62005219244018
  S   6.77553381675842      1.26103828618636     -1.33213103332325
  C   7.11505542961742     -1.23164208211158     -1.03401898800618
  Br  7.52580419388864     -1.70322875112495      0.80294428648837
  H   4.70259318371876     -3.55011702417873     -1.83313138155773
  H   7.74967209163211     -3.43166823888747     -3.50843966825555
  H   9.36294763993297     -3.07523363081485     -0.93634425310779
  H   10.40121041216702     -0.90871563915265     -4.15746427229794
