21
Coordinates from ORCA-job 20165optt
  Br  1.83321285576286     -1.40218825632343     -0.15723489787703
  C   3.37571659527733     -0.34116663022710      0.05533339398468
  C   3.64635861264874      0.78566024780464     -0.61698496348052
  Br  2.49008272509839      1.43998219670384     -1.95036857113743
  C   4.87340709410100      1.52337912989330     -0.26619411709543
  C   4.95560474514709      2.85262329996243     -0.45189638144761
  C   6.01411302731588      3.83983624847478     -0.13826324982953
  O   5.64266268598065      4.99865472029691      0.01914154592629
  C   7.41555341008382      3.44307801243030     -0.10752982368771
  C   8.45492084721453      4.47218390948150     -0.22120571486019
  O   8.33576960583366      5.67129460534186     -0.33226228542697
  C   7.91315232058578      2.14662541204442     -0.04259743802299
  C   7.36518713112014      0.84745954528244      0.13951148665108
  O   8.11326285424402     -0.14849188126419      0.18789635892012
  C   5.89214146141015      0.62006808409710      0.30435198550389
  N   5.58406999672719     -0.47775472322886      0.90659423194397
  N   4.26236929335356     -0.81411808951414      0.98638457363573
  H   4.07120779248307      3.35344931434135     -0.82882320508973
  H   9.47637882118457      4.03157627064790     -0.22321946567402
  H   8.99712403773324      2.07426028629650     -0.08909569369092
  H   4.12070408669416     -1.74941170254161      1.32946223075432
