24
Coordinates from ORCA-job 20164optt
  Br  1.16441155230308     -0.00655203478209     -0.45610968311213
  C   3.05055174214716     -0.03237575567324     -0.20805889142283
  C   3.69535085060522      1.13508059888478      0.26318464525998
  Br  2.66309944648980      2.54918420421836      1.01525858891417
  C   5.10143847373220      1.19228003622002      0.25594319899454
  C   5.84080767042983      0.07831981842809     -0.09994538912331
  C   7.32115535703228      0.24189505715898     -0.35814784376160
  O   7.58671944103123      1.12594048484578     -1.45379451520462
  C   7.73444248903456      2.47621837280875     -1.13542211855467
  C   6.51029546595761      3.15428704967284     -0.53666471400766
  O   6.16361018711000      4.24144099173990     -0.92852157828711
  C   5.83380695821976      2.46832601922394      0.63066993847060
  C   5.20824227932043     -1.19629048112763     -0.34136574739871
  C   5.92775307586945     -2.43288606397334     -0.34773829296287
  O   7.12736019363610     -2.59563432133658     -0.05100290904226
  C   3.78704402021656     -1.14917297530487     -0.51337407480747
  Br  2.90673568745006     -2.67997669268118     -1.24910341216134
  H   7.75330477212944     -0.71229516610424     -0.62730963129909
  H   7.85023417786519      0.60991910025910      0.53221881597638
  H   7.99998703558788      3.00861471805703     -2.04779774792369
  H   8.54835307411706      2.61578012378273     -0.40169535686647
  H   5.16263709747198      3.19096883765734      1.08167786400695
  H   6.61397840795100      2.21806220910815      1.35662245058094
  H   5.33568054429197     -3.31313413108264     -0.62752359626773
