20
Coordinates from ORCA-job 20160opt
  Br  1.35249404131865      0.46092392425157      0.90317311444772
  C   2.88812434751392     -0.10451351316345     -0.33669386047343
  C   3.54794203885204     -1.29106570001375     -0.11905455775128
  Br  2.50737849340132     -2.86019827908039      0.06429898984011
  C   4.95776394507558     -1.40249713784478     -0.11707584240590
  C   5.69843318454038     -2.55661372907881     -0.12057809318002
  C   7.13364599647404     -2.57621940031486     -0.02964849296213
  O   7.80513954966885     -3.60952963434287     -0.03491972366545
  C   7.75739137390872     -1.26239374889201      0.09143151964213
  C   7.02618205264659     -0.13933377279252      0.05776059239794
  O   7.64785942040619      1.05797860016984      0.16420969911210
  C   7.00965661071567      2.28952150256216      0.10261459383184
  O   7.69347654390715      3.26377081164870      0.24999757038177
  C   5.60530386730594      2.23358119708902     -0.14288445050043
  C   4.97605285399741      1.03832935412598     -0.23848523879649
  O   3.68691720759777      1.01483898541148     -0.55249490678088
  N   5.64069862711884     -0.15469022065250     -0.08412110843003
  H   5.18279236299206     -3.50293700410915     -0.16348371192617
  H   8.82788249051961     -1.18511385489474      0.20539364987616
  H   5.04786499203888      3.14716161992112     -0.25343974265756
