22
Coordinates from ORCA-job 20170optt
  Br  5.36585664014874      0.38557433074733     -1.89049391294129
  C   6.27243081538424      0.66420372843703     -0.21475863510258
  C   5.60410091973536      0.79391818464582      0.99595715077212
  Br  4.20373857577557     -0.41690787173464      1.41165845571630
  C   6.03338554688208      1.69448975145733      1.97187700779799
  C   5.72961298590973      1.80415298709422      3.31113682548997
  C   6.29994887927744      2.75548431045600      4.20399102960565
  O   6.06015320660216      2.79550596251113      5.41080065558220
  C   7.27837552807058      3.80908149536774      3.67880893913322
  N   6.83639281300166      4.93935887982665      3.30959875901843
  N   8.61222896282272      3.51592203487082      3.89752122723331
  C   9.62419676806339      3.13199267757267      3.26003108978824
  N   9.90345970846020      2.69299534591549      1.97640502280651
  C   9.19802528005508      2.10270183228544      0.90948966947620
  C   7.89184952083316      2.04398103095946      0.68058528648325
  O   7.41793852121010      1.42505249739451     -0.43261929417066
  O   6.97008218229798      2.61193066106945      1.47598117622431
  H   5.01172519982347      1.11657057509937      3.73452610003362
  H   7.61436795041803      5.56128723803320      3.08732221501762
  H   10.56761850295864      3.15776613920352      3.81338731089799
  H   10.89134943818534      2.53897361201092      1.87738796564782
  H   9.84116205408422      1.64496459677649      0.17340595548973
