24
Coordinates from ORCA-job 20178optt
  Br  1.09905355552399     -0.64015283706641      0.05313194658225
  C   3.36545270921089     -0.02440891600840     -0.57265335808004
  C   3.92390229671927      1.20833912791261     -0.36456134588760
  Br  2.91676087939490      2.80991018084348     -0.58268218871377
  C   5.27223154666001      1.27275631902536     -0.02048175304296
  C   6.03955147584607      0.14524210926521      0.09711805218940
  C   5.53041468982403     -1.15667393453154     -0.18383562823908
  O   6.14792122326992     -2.21449338633879     -0.22073595641040
  N   4.15256561586282     -1.11072083772794     -0.46218891442666
  C   7.46751699968169      0.60234951906434      0.28401333359993
  C   8.15194143426840      0.81133344509173     -1.09096374654143
  N   7.34288464815716      1.66032563104118     -1.95975346593784
  C   6.75841127549582      2.81859299204840     -1.27728817123128
  C   6.20869139707737      2.45131941908626      0.10885934280521
  O   7.30647533269297      1.90692147464041      0.85010422092283
  C   8.30733955901299     -0.20674918075052      1.17539523399284
  N   9.01397655058039     -0.81878996801762      1.83727510888011
  H   3.71882816577895     -2.01600884773053     -0.60616123609410
  H   8.31507185793224     -0.15066673006156     -1.57679530847899
  H   9.11822870254567      1.28829730792441     -0.90805699243879
  H   6.59393834915002      1.10276447056610     -2.35332799531453
  H   5.96981729655603      3.23525444519869     -1.90492948151082
  H   7.53314470351710      3.57687281376524     -1.13628936765782
  H   5.80587973524114      3.30738538275987      0.64680767103355
