19
Coordinates from ORCA-job 20175optt
  Br  2.38031338806947     -0.82536368731519      1.02098100006636
  C   3.96836739279615     -0.01444971587892      0.38798611909958
  C   4.22061174865067      1.34605460757493      0.49718963100686
  Br  2.85895815489149      2.55607070268790      0.98329314703528
  C   5.47355758964900      1.83126616528394      0.04553218037420
  C   5.70091424689754      3.13479662175160     -0.34776276084731
  C   6.90918420203430      3.76319846972098     -0.80390539030634
  O   6.93047955783658      4.82110267100311     -1.41277759837089
  C   8.23994342228993      3.12598379748216     -0.40026830388231
  O   9.18064448260873      3.02536140383651     -1.13625137384608
  C   8.30207779547502      2.71424825837837      1.08225603929766
  O   8.46907449271944      3.57826769724636      1.91152198548573
  N   8.28336336362925      1.37055131141943      1.30349435995953
  C   7.55782902220289      0.55128009869335      0.63122053331790
  N   6.40453486499746      0.75019284540260     -0.03869646062515
  N   5.93435487119603     -0.47224674529152     -0.66572268786160
  N   4.75848481466590     -0.81737313043613     -0.33019546075914
  H   4.83599161964627      3.78345631710126     -0.37558484144058
  H   7.85331496974372     -0.49439768866079      0.58068988229632
