24
Coordinates from ORCA-job 20172optt
  Br  0.68142474214659      0.30827785279251      0.64130236175118
  C   3.06282978907016     -0.06368014481605     -0.33694152702781
  C   3.76946203426363      1.11212671007051     -0.39263723456425
  Br  2.91896679334686      2.77893315536875     -0.75237893448506
  C   5.15145005663265      1.12250318169925     -0.20553407180381
  C   5.83416888741528     -0.07648960205538      0.01916102093627
  C   7.33215629630616     -0.05466235615268      0.18101860252224
  O   7.87141071817014      1.19462263829069     -0.22216254399134
  C   7.11749893788727      2.23775303369631      0.30104005046922
  O   5.83218160394901      2.30202562554764     -0.26200119657363
  C   5.11960435389211     -1.25780157003853      0.04349423789419
  C   3.73664285595542     -1.26671713549312     -0.13521528502718
  C   3.09510660150671     -2.61258821688384     -0.18434070533964
  O   3.74013333897849     -3.64085442093827     -0.09640246159528
  N   1.72606959932730     -2.62647810234001     -0.37411327597896
  C   1.02834115454042     -3.79567314447418     -0.52431407573001
  O   -0.16713567210610     -3.85516060702062     -0.67400527122744
  H   7.79803465512313     -0.81125544931655     -0.44969947375890
  H   7.61759394765562     -0.25507754581059      1.22229284029019
  H   7.61423900266325      3.17027411482376      0.04827086804867
  H   7.01989871319457      2.12437757916666      1.39035153755241
  H   5.62665005689857     -2.20765533257752      0.17631181387782
  H   1.20907163857407     -1.74278865416893     -0.30740239349304
  H   1.67719989460846     -4.68001160936978     -0.50509488274584
