21
Coordinates from ORCA-job 20183optt
  Br  1.28846878980062      1.12485854178564     -0.61302848869282
  C   3.08599594833206      0.66550527745662     -0.30625916376340
  C   3.53131728640560     -0.60786905903345     -0.45379926761860
  Br  2.39129727647981     -2.03096785684281     -0.94324947647201
  C   4.90390190123807     -0.90175368417041     -0.26707072511828
  C   5.67997518431484     -2.01611753584136     -0.34425155333613
  C   7.05447643460748     -1.56599284297060     -0.05327518916059
  O   8.05734712720270     -2.27090055188651     -0.02835316599545
  N   7.05762720005139     -0.17885650387370      0.19513155751882
  C   5.80630905429301      0.19470548971953      0.07059529508107
  C   5.31108760688605      1.52745968355074      0.22155073004653
  N   6.11570237450934      2.49590678756677      0.66699236950076
  C   5.86355663820971      3.74633661864179      0.36733085573479
  C   5.06143622237423      4.12997098530722     -0.77608108036666
  C   3.87577809448640      4.02108741909775      0.07496638519750
  N   3.29760708567137      2.89823101944032      0.39156925913631
  N   3.94125022976343      1.72203965585598      0.02548165453777
  H   5.39337093842029     -3.02919913971969     -0.57324402554674
  H   6.22570057360219      4.48945128956371      1.07865143658431
  H   5.05174130812824      3.27053309194824     -1.45272710519590
  H   3.42205272522307      4.87357131440419      0.57806969792876
