26
Coordinates from ORCA-job 20186optt
  Br  1.57557378735689      0.77333193195262      0.37281498251842
  C   3.11623424632976     -0.33290604627152      0.42884550962484
  C   3.27982671751916     -1.47261457925463     -0.35915871338353
  Br  1.87392508476313     -1.97419577105870     -1.54073963822028
  C   4.42672841634667     -2.25451326346613     -0.29001067233537
  C   4.74702171551628     -3.40502719309258     -1.17706428068739
  C   4.19504823046814     -3.75149857278203     -2.57309790972876
  O   4.20387051562142     -3.24020311850906     -3.66257500595105
  N   3.81016904618301     -4.99199646578872     -2.15488750615557
  C   4.27611432315596     -4.82229211247479     -0.76055018603005
  C   5.35627557825867     -5.72626200806300     -0.30166777495186
  C   6.48918721293757     -5.33283502776537      0.35607810086836
  C   6.99752148917083     -4.09513484637034      0.84662610535613
  C   6.55584570182422     -2.77404678168363      1.02621747014854
  C   5.41799431133245     -1.98071148337769      0.71468086519661
  C   5.24006183994316     -0.77682691379189      1.45573319465560
  C   4.13731281846153      0.01991441078403      1.31963878182461
  H   5.83356303696212     -3.43804907385136     -1.29353628897262
  H   3.68105918334746     -5.82945178394074     -2.70174214188354
  H   3.41434552717060     -4.77684558763219     -0.08429633786257
  H   5.21326273604110     -6.78851222169537     -0.47529053057425
  H   7.16562789372636     -6.15531268728842      0.57829109780311
  H   7.97896805143897     -4.23494303631921      1.29034902270828
  H   7.25259278098073     -2.21347658004180      1.64534826424737
  H   6.00200181103130     -0.50065434226249      2.17559071260435
  H   4.03286794411241      0.91906315404511      1.91240287918065
