25
Coordinates from ORCA-job 20185optt
  Br  1.01482371483151      0.06133009109021     -0.14682411816814
  C   2.92853817542819     -0.04918089326858     -0.09337922232663
  C   3.56682916398114     -1.24662565743312     -0.01048854037466
  Br  2.62492689181424     -2.88763886963964      0.11299118791161
  C   5.00981248649422     -1.28338003907152     -0.00641001744505
  C   5.64525564459767      0.02484291657816     -0.03600078119488
  C   7.11455277029347      0.08449135850395      0.00770760005145
  O   7.79407887196437      1.11725061403680      0.03995470584224
  N   7.75502280967385     -1.11947385266416      0.01283637038104
  C   7.14963190444452     -2.38160590465024      0.01252917455773
  C   5.77931933991978     -2.44741357362884      0.01254500957431
  C   4.86697035964024      1.16990010713866     -0.10205732713271
  C   5.43495790675283      2.57511291444950     -0.11859038172886
  N   6.03874723454617      2.99050523826201      1.13529636330436
  C   5.29662470755728      3.41910587516374      2.18749580039256
  N   5.65673318915514      3.59936800318433      3.40036000204406
  N   3.52147282402277      1.15355611044896     -0.14779219015696
  H   8.75850301907097     -1.04086280690136      0.04973358328251
  H   7.80963135564628     -3.23282906794710      0.02354292644003
  H   5.30071179581275     -3.41492403110975      0.02445113435276
  H   4.60164685076617      3.24207518049950     -0.33721899250980
  H   6.18739430020934      2.67763823852298     -0.89769451753283
  H   6.94096560797467      2.56625076074649      1.30943790941237
  H   4.26810434376627      3.65974919685586      1.91370743752437
  H   6.63074473163604      3.31975809083316      3.52686688349911
