19
Coordinates from ORCA-job 20194opt
  Br  1.58616511654029      0.95635705353927     -0.06487353884998
  C   3.41699218812838      0.59462973212721      0.22695310757614
  C   4.42614889973127      1.07402151796698     -0.50508254479717
  Br  4.08631636454956      1.99814646828873     -2.11816011290895
  C   5.79207368467562      0.63050471989743     -0.16613991005178
  C   5.85064982113218     -0.65987907948443      0.42714022371746
  C   4.74118482991059     -1.12337537670257      1.22120631874180
  O   4.64558002771618     -2.06336481067373      1.95054550424198
  O   3.60452967658131     -0.24067985356876      1.24271848928607
  C   6.97577950245318     -1.60884523848782      0.26402767029266
  O   6.78154624760566     -2.81208118224410      0.32925662498787
  C   8.33053123220666     -1.12681597942889      0.01538394397910
  C   8.80084812722988      0.13910655648794     -0.16811538290460
  N   8.19645874508149      1.33023582224772     -0.29787791851506
  C   6.87820273836167      1.50600719475648     -0.37007858752973
  C   6.56856832314901      2.91299194788111     -0.55832266418896
  N   6.37738512865405      4.04334743981903     -0.63269789024414
  H   9.06091315680982     -1.92672031090706      0.03126598346504
  H   9.88312618948275      0.22341337848543     -0.24514931629775
