22
Coordinates from ORCA-job 20190optt
  Br  0.91603591980178      0.19234544408289      0.45529975661333
  C   2.78367788023855     -0.00493118961430      0.20563599449949
  C   3.44080906688429     -1.17104905957435      0.23564484889859
  Br  2.51061671086927     -2.79817789281132      0.49876575391094
  C   4.88142740556535     -1.17837919484716      0.07283524439739
  C   5.54114620101406      0.11580623255443      0.03466277130580
  C   4.80637968087045      1.31842749339661     -0.06654045960771
  O   5.14704704724648      2.47061688021168     -0.20833977601062
  O   3.35705780137403      1.17523484439578     -0.00735516423560
  C   6.98646822933859      0.07961791689844      0.03470630201807
  Br  7.97425478771149      1.68552273954798      0.34383934162404
  C   7.69171589931886     -1.09054922656630     -0.08517393176773
  C   9.20449748810932     -1.15580028155459     -0.09787893465363
  C   9.77955591947900     -1.33998750424698      1.23552551701322
  C   10.24778659839865     -1.50413757745357      2.32731724219135
  C   6.99946719750711     -2.31793036672984     -0.17148291133715
  C   5.61328946663744     -2.34099730324061     -0.04670240549751
  H   9.62829845631746     -0.25460575585864     -0.54030530569247
  H   9.50358303361215     -2.00338417493852     -0.71964248387275
  H   10.64656504397577     -1.63881171549787      3.30290732147170
  H   7.56021382343098     -3.23785858733443     -0.27089084898360
  H   5.09510634229876     -3.28997172081931     -0.03382787228515
