21
Coordinates from ORCA-job 20202optt
  Br  1.25149242864155      0.33635562234350     -0.23678415352959
  C   3.12723462567559      0.10444280088545     -0.12868698409485
  C   3.74492295393728     -1.09060143000376     -0.12462681253907
  Br  2.78942287401931     -2.70447940734034     -0.33755649812994
  C   5.18832827116090     -1.14659362436482      0.00583826445263
  C   5.98570138247607     -2.28182039533232      0.09866090063778
  C   7.37488382593587     -2.01832784682149      0.17713478513092
  O   8.34261281916705     -2.75956344958954      0.26177280333955
  S   7.59380580245984     -0.19517853082961      0.13049550309641
  C   5.88872151254000      0.08135651517669      0.01708810283850
  C   5.23313900007793      1.31349338885728     -0.06894739620761
  N   3.81459571929730      1.28510873242283     -0.09969696420169
  C   5.78285591279133      2.60292230480158     -0.13369056456615
  C   5.17843692491959      3.84519750962192     -0.30138789771583
  C   6.25720739155352      4.74052348571115     -0.23405381747899
  N   7.40662577836584      4.15088225645322     -0.04364075593874
  O   7.11330862403325      2.79166198732403      0.02532109954324
  H   5.61600958462355     -3.29513867422541      0.09994831697584
  H   3.33944517927473      2.07171471159094      0.32160933167183
  H   4.14593845217610      4.06333608239577     -0.50680136978096
  H   6.24331093687332      5.81670796092292     -0.32599589350325
