27
Coordinates from ORCA-job 20204optt
  Br  0.93893488682684     -1.52972345177148      0.30381649110675
  C   3.12955987186809     -0.31846547886275     -0.04568388329056
  C   3.42391289094975      1.00146368352341     -0.15055680431106
  Br  2.09596193405100      2.29496393966236     -0.60073842715996
  C   4.76311863905040      1.39576279903145      0.02951415957057
  C   5.73658590553302      0.48839781352793      0.33923106795671
  N   7.01755965255523      1.14122924744351      0.38201514539833
  C   6.84412288869931      2.38700062761399     -0.39745436961380
  C   5.38279285423017      2.76059835132779     -0.13176455150060
  C   7.89031282487537      3.45255190262498     -0.10792027731036
  C   8.30055673631024      3.40854189683158      1.34939314602009
  N   8.76543786735666      2.06039162808855      1.62606320005123
  C   7.88522284045033      0.99834353902826      1.43228962125096
  O   7.93692392873517      0.01190978942678      2.14135112887096
  C   5.47710029850168     -0.93308369931203      0.41745186137944
  N   6.26228816509220     -1.93066887666797      0.58416163645561
  N   4.10720777801511     -1.19025444507895      0.23432687184046
  H   6.91203942605017      2.09559944176285     -1.44973404984127
  H   4.94135395663166      3.32616989016416     -0.95120750759304
  H   5.26782251855456      3.34660919047420      0.78825915145686
  H   8.77809553931488      3.27499428532887     -0.71655950071776
  H   7.48520281443124      4.43038236574336     -0.37521103510463
  H   7.45614554062691      3.68824969086486      1.99315020841015
  H   9.11452822362443      4.10675282836773      1.54468291666378
  H   9.26152269713397      1.92361827780382      2.49388392690407
  H   7.19542147852327     -1.59897967694159      0.80502594031150
  H   3.85126784200812     -2.16835556000570      0.30921393279557
