20
Coordinates from ORCA-job 20212optt
  Br  1.14287792923719     -0.09231820184725     -0.06076721777612
  C   3.01969860824347     -0.04302529387305     -0.05998422482068
  C   3.76671644915367      1.15546741784733     -0.05871701240751
  Br  2.95584679917340      2.86375252443996     -0.05618248375230
  C   5.15139685070699      1.10229943088831     -0.05900978558822
  C   5.85189362832751     -0.12814954135689     -0.06054584833325
  N   5.09593644377850     -1.28963257358442     -0.06171457764056
  C   5.43193085715028     -2.61198331719743     -0.06356751327263
  N   4.35863393556930     -3.34863500578739     -0.06438165714113
  N   3.26788954459277     -2.52858377422141     -0.06318835049693
  C   3.71003502388444     -1.27715607546270     -0.06157010545634
  C   7.21305224608278      0.14799723409500     -0.06053699617016
  C   7.35212270162035      1.55127989556449     -0.05899949318967
  N   6.09259658817538      2.11660256572720     -0.05793389244749
  N   8.57119862851835      2.07398465699167     -0.05890483752389
  C   9.46856317396382      1.10193069346992     -0.06035313890689
  S   8.79828961152738     -0.52740500771737     -0.06195300995031
  H   6.45169956959702     -2.95921636733141     -0.06418644124413
  H   5.87572806215519      3.09694577161067     -0.05682618701665
  H   10.53489334854217      1.25284496774477     -0.06067722686515
