22
Coordinates from ORCA-job 20211opt
  Br  1.11605167431201     -0.09432909494267      0.05635991350174
  C   2.99482121966316      0.07978238063821     -0.01927816278488
  C   3.64444438072873      1.25923777870391      0.03512509788658
  Br  2.78492034229646      2.91965120107143      0.19034191285352
  C   5.08425291967373      1.20279108048644     -0.02712270855247
  C   5.74062253700077     -0.02770081816242     -0.08271280187862
  N   7.09917985414518      0.32771252906784     -0.19350831545257
  C   7.14760979957204      1.76241892076327     -0.16355061539872
  N   5.90076459948292      2.26287813617488     -0.07155170843220
  N   8.26504011278291      2.43351335538101     -0.24952749254631
  C   9.39547308942332      1.71798937077651     -0.35551252543879
  N   9.37381629388160      0.34707738558126      0.02587183945954
  C   8.24038081569008     -0.42004462580375      0.05186648839017
  N   8.18944645165887     -1.67896401096330      0.28969943327238
  C   5.05930006716129     -1.27926569116023     -0.23146926128185
  N   5.43177401722722     -2.48630120913955     -0.44886144091088
  N   3.65678679567238     -1.09974798258449     -0.12256981572240
  H   10.35220182426245      2.20239466492657     -0.21813595421267
  H   10.24225236992043     -0.15720091010350      0.05269426863871
  H   9.12295744907227     -2.04754361987264      0.44347565937226
  H   6.44658311126816     -2.53210381606473     -0.42031355795256
  H   3.13832027510354     -1.95824502477410     -0.22232025280995
