30
Coordinates from ORCA-job 20218optt
  Br  1.00380666328225     -0.57956112603713     -0.90674113057259
  C   2.88362976904340     -0.28864271272428     -0.63388953991042
  C   3.38914398110339      0.97729787842416     -0.46532773078277
  Br  2.13647155737034      2.76820956693050      0.77689781483687
  C   4.76084911999629      1.05993071236466     -0.28670977635829
  C   5.51424915272905     -0.10658402287940     -0.28411432753555
  N   5.02604610813485     -1.33138712207547     -0.45927167838832
  C   3.70894550234719     -1.41028559465494     -0.63908071396788
  C   6.97977079793149      0.16370472218563     -0.03625230753653
  C   7.82234824281480     -0.15580793192255     -1.28434999462477
  C   7.49309501104906      0.68081494187626     -2.43581601917492
  C   7.20265901371768      1.38877950397770     -3.35845475934217
  C   7.54070853135204     -0.60120593685367      1.18866563969486
  C   8.16152498327758      0.48085214027365      2.07704183963293
  C   7.22426987162651      1.66751280477575      1.86554888841432
  C   6.98875622535005      1.67706391106624      0.35178633410355
  C   5.63027987389174      2.26916203870986     -0.07411764608842
  H   3.28653515845983     -2.39853673198250     -0.79146021919942
  H   7.66439980111609     -1.20604798603454     -1.54480623808822
  H   8.88285849433902     -0.02752487205656     -1.04370688982073
  H   6.92089054975972      2.01141757191545     -4.17254224623530
  H   8.25028891544092     -1.37822040647065      0.89791930029380
  H   6.71994730502068     -1.09407450192237      1.71171946283560
  H   9.16357176724125      0.73658071193497      1.71706631753612
  H   8.25259757426195      0.17444058435136      3.12030815261769
  H   7.61668354450419      2.61566199776441      2.23635328913092
  H   6.27220615812943      1.48007315014836      2.37272255341474
  H   7.82089882280089      2.18771189656226     -0.14059857314622
  H   5.71154526698052      2.84021711474055     -1.00143762233994
  H   5.19802223692758      2.93044769761229      0.67964782060107
