20
Coordinates from ORCA-job 20210optt
  Br  1.11834668552944      0.07995962297035     -0.11189345611312
  C   3.02576868797504      0.00208294469754     -0.06840067816024
  C   3.77397722061523      1.18446307971836     -0.04688277328239
  Br  3.03822718055114      2.91713794705226     -0.04217113926640
  C   5.17894398462175      1.03329965664701     -0.03068402431302
  C   5.76234222906970     -0.24303016172418     -0.02966663348947
  N   7.12637409733987      0.01510611260819     -0.02205550866469
  C   8.32727669461391     -0.67453834707884     -0.02558140726240
  C   9.38405958683794      0.15357264960622     -0.02161187458940
  S   8.92993642562548      1.84262787364965     -0.01228178493516
  C   7.25645281641900      1.38503902751249     -0.01718571682112
  N   6.13010137478456      2.03578306507707     -0.02080425555637
  C   5.01063637889422     -1.45878899625324     -0.03979067833966
  C   5.53809370093454     -2.77093704381686     -0.02699611275789
  O   6.74651352608508     -3.10692053218450      0.00238941139031
  C   3.59972514746625     -1.25047314507110     -0.06410876463007
  H   8.28692131562631     -1.75396941655944     -0.02928085435211
  H   10.42153282021613     -0.13103543977890     -0.02311516864886
  H   4.76430249726232     -3.56011017100445     -0.04421550997843
  H   2.95746762953206     -2.12126872606761     -0.07866307022951
