25
Coordinates from ORCA-job 20217optt
  Br  1.20038066106173      0.20919550480435      0.27053518311426
  C   3.11648275020815      0.06481608511022      0.18767448049888
  C   3.73667157100221     -1.16333754104464      0.14122340356535
  Br  2.82391461560425     -3.46821045386129     -0.60440283675907
  C   5.10737126398081     -1.14442024183007      0.10113074235288
  C   5.78565741147757      0.09448750383479      0.11901193678204
  N   5.18230315141752      1.27581894319822      0.16300194171517
  C   3.84737178006837      1.24661780967222      0.19670659131284
  C   7.22104159626651     -0.18439633795282      0.06397771492990
  C   7.37787058665899     -1.54727787314689     -0.00291347344530
  C   6.08613291293089     -2.30148860915619      0.01350612866412
  N   8.70510834216853     -1.83080645808407     -0.05382442473792
  C   9.41072691891960     -0.64512985143390     -0.00233972284051
  C   10.89703121397066     -0.57595422420574     -0.09796762675926
  C   11.69520801628499     -1.78362197425979      0.29596841093947
  O   11.26687299621522     -2.89191717954137      0.47804610078397
  C   8.51365585102146      0.39778968235702      0.06649276863864
  H   3.33524009157182      2.20273443738834      0.23520982410658
  H   5.97569028158187     -2.97995540473661      0.86237066555459
  H   5.89492943510356     -2.88989628912054     -0.88681260167199
  H   9.14388244515370     -2.73576585108448     -0.02074626946679
  H   11.27139344119918      0.27056070702057      0.48527807212150
  H   11.23133626566018     -0.36921241492435     -1.12798802237838
  H   12.78497378124569     -1.59686751745391      0.37596386947651
  H   8.77175261922624      1.44423754845098      0.10389714350253
