24
Coordinates from ORCA-job 20219optt
  Br  1.25247268188227     -0.60362949566257     -1.33861027027782
  C   3.06086174756944     -0.28563959621117     -0.79470477134730
  C   3.56664791374550      0.99165279189723     -0.72241211558546
  Br  2.33634158680454      3.21423131936366     -0.40245365880272
  C   4.88020363224243      1.07713617692934     -0.31651592498237
  C   5.60715342185472     -0.08555933277256     -0.03778926690306
  N   5.12239530575549     -1.31277751689927     -0.12971497660410
  C   3.84496977807030     -1.39957559291576     -0.50525092477406
  C   7.00537063649299      0.26131417836406      0.38797300878395
  C   6.92410264100672      1.03563828904482      1.72125060462152
  C   6.10079232514960      2.32320939888623      1.41851106767615
  C   4.85970072571976      2.45620347873800      2.28198592153715
  O   4.79147045037209      1.98734860268637      3.38717902092689
  C   5.74211088633056      2.28544408816182     -0.08601651880412
  S   7.32336527961664      1.66216307364746     -0.74092150335984
  O   7.27534074711480      1.29938992843845     -2.12925200082339
  O   8.43606035281888      2.45743980472693     -0.28064769655775
  H   3.42491169979457     -2.39612987919052     -0.58795363838401
  H   7.74082608940674     -0.53470492418995      0.32873734354440
  H   7.92196644175825      1.28645468777518      2.07417786238515
  H   6.41764109149553      0.43925462165498      2.47842131800014
  H   6.70816912432881      3.21102440749110      1.61803129475212
  H   4.02680324744166      3.03032719927804      1.84059761484987
  H   5.39032219322726      3.21278429075803     -0.52862178987139
