28
Coordinates from ORCA-job 20222optt
  Br  0.91815300809142     -0.48853274063630     -0.85978696250544
  C   2.79961223396201     -0.20671690144293     -0.61951309502968
  C   3.31368954566406      1.06286560628722     -0.48979677779728
  Br  2.13429531755998      2.81884004822064      0.81751262098640
  C   4.68866329368566      1.13505988948152     -0.33448413339347
  C   5.43849453629487     -0.03387248796132     -0.32370935985514
  N   4.93594469966711     -1.25951465657161     -0.43150025012797
  C   3.61538073565186     -1.33440792583345     -0.58697235033189
  C   6.91566396870783      0.25567425921401     -0.10146440222501
  C   7.53392297794516     -0.54024090084493      1.07142749700503
  O   7.78962968498005      0.39721076651680      2.11053863370864
  C   6.90245124673215      1.48403519550522      1.92363462990208
  C   6.86860879953601      1.71447307192252      0.41703090687447
  C   5.55913818770811      2.33738053070854     -0.08829176015321
  N   7.72490983108864      0.17632036922181     -1.31247985862130
  C   8.02168478971931     -0.97840382292441     -1.98623450607465
  N   7.69475119323939     -2.17457654997353     -1.72188075885324
  H   3.18484453899338     -2.32533163882470     -0.68597189455701
  H   8.47725012613820     -1.00807793131543      0.79201263118444
  H   6.83562511512353     -1.30796926285489      1.41702653119410
  H   7.28241944177097      2.33708081261311      2.48428670190355
  H   5.89534183051226      1.23819815966785      2.28596920229333
  H   7.76604725718761      2.25832745146812      0.11484730958476
  H   5.70640588399608      2.91183962194413     -1.00683838780237
  H   5.09555587648910      3.00821563259009      0.63767709436414
  H   7.87544817969855      1.03942531034614     -1.80799630818645
  H   8.66614405862952     -0.78918656997519     -2.84754993062954
  H   7.02092364122672     -2.22511533654905     -0.95549302285731
