25
Coordinates from ORCA-job 20224optt
  Br  1.00195141331952     -0.19318854504490      0.21323280923209
  C   2.89317527003759     -0.09507247198890      0.07644781290656
  C   3.54447123232993      1.10769948606563      0.09666246893796
  Br  2.64536675442950      2.76979329652107      0.31450759037861
  C   4.96363815274324      1.10720404306267      0.01791671730787
  C   5.58894851018966     -0.14673842343805      0.05993485636754
  N   5.01560755811134     -1.31730844555550      0.05241471738326
  C   3.62142912748331     -1.32169919095667     -0.02287543873823
  C   2.98047900068196     -2.55951179278535     -0.19041502539786
  C   2.44367267210294     -3.63681578799071     -0.33624526617689
  C   7.09662447780838     -0.00811181479479      0.07680448309302
  C   7.49418142532932      0.68892465980159     -1.24886685282065
  C   6.82622897488557      2.08397691109094     -1.30188721270442
  C   5.93535656367773      2.22657156329784     -0.05770065147031
  O   6.86621096982072      2.15193832260256      1.07784185180606
  C   7.47927211733524      0.94945269494676      1.17782613589124
  N   8.32386547621842      0.68301413505742      2.08166511552297
  H   1.96600894574959     -4.57708858720601     -0.45619043112862
  H   7.58690090357148     -0.96587490978620      0.21837989622902
  H   7.16632304800080      0.05966742829940     -2.07589659768697
  H   8.58027373354890      0.77642234650995     -1.30136747093475
  H   6.21314658104566      2.20005649289175     -2.19486489319675
  H   7.57703715317770      2.87755837281560     -1.29754476564034
  H   5.47326643514998      3.20682490142490      0.01845289522184
  H   8.42556350325139      1.49230531515898      2.69476725561775
