22
Coordinates from ORCA-job 20226optt
  Br  1.34313252588365     -0.36282796556351     -0.02864035782044
  C   3.24811242164241     -0.14114560226058     -0.06981534823169
  C   3.80022530712642      1.11530089605795     -0.06374362555737
  Br  3.01690222687703      3.56332907961271      0.10503689463108
  C   5.17427338521781      1.12404804220802     -0.08012064928745
  C   5.89623241404632     -0.06201460589886     -0.09407991814675
  N   5.35882876181849     -1.26465727809459     -0.11334821211182
  C   4.02473440283047     -1.30171932377016     -0.10549199636009
  C   7.37353188177212      0.27217965376245     -0.07730552364985
  C   8.16165346422953     -0.28478767914447     -1.27602750876204
  C   7.61989483556615      0.14333456048867     -2.56522696302368
  N   7.21952048519239      0.47268623571945     -3.58682867189921
  C   8.01600874392555     -0.16520093722876      1.15809270385981
  C   8.54625838269484     -0.52826963461022      2.16812003194164
  C   7.35309133800447      1.83780960197479     -0.12745915762249
  O   8.33862485969440      2.52967034631977     -0.20145057161941
  N   6.05247323003039      2.21613341793802     -0.08890433226138
  H   3.55528573535351     -2.27822771358076     -0.12586299258848
  H   8.14037837893163     -1.37408975006612     -1.23027580780761
  H   9.19405256712793      0.06026575738805     -1.20474993122424
  H   9.00150442572261     -0.84738207581753      3.07399234867101
  H   5.70528022631168      3.16856497456567     -0.11191041112953
