26
Coordinates from ORCA-job 20225optt
  Br  1.04974968051195     -0.00312832043011     -0.10235824736014
  C   2.96527076895779      0.02215177022325     -0.05907273516627
  C   3.63315644922179      1.21408365089492     -0.15112444626743
  Br  2.80189571136215      2.93483742340259     -1.65897470175530
  C   5.01907357089897      1.15556288506013     -0.07439425207196
  C   5.65959973779926     -0.08269788487340      0.00607103418303
  N   4.98822708218799     -1.22836009831071      0.09827023961261
  C   3.65564835486646     -1.18974069662747      0.09339514217662
  C   2.97893469223090     -2.44797135255654      0.25402695132251
  C   2.41773843724624     -3.49852632221723      0.39827092734998
  C   7.16021070954836     -0.19254360288734     -0.04553150008101
  C   7.82565463584913     -0.76260362538643      1.21211402518163
  C   9.24169124001291     -0.22799134352779      1.06682229723700
  O   9.11184636821490      1.05867813138647      0.47015376804162
  C   7.84990148122263      1.16448788091721     -0.18543085354663
  C   7.01171832224140      2.23422748222794      0.49421933054842
  O   5.73315552668733      2.32234298496961     -0.08969948615021
  H   1.90951927441138     -4.42279243614738      0.52437164294913
  H   7.42190860153506     -0.83047311029271     -0.89394372191345
  H   7.76700919758609     -1.84816656099900      1.25454072793081
  H   7.34765558345306     -0.35748622338169      2.10586811109084
  H   9.84101726982636     -0.87531665022816      0.41561018953009
  H   9.76611045045392     -0.11102794956648      2.01584789564888
  H   8.00843271977589      1.43733964582515     -1.23129634168753
  H   7.47403484214594      3.21516671735389      0.39464528812555
  H   6.92383929175179      1.99194760517127      1.56159871507118
