22
Coordinates from ORCA-job 20233optt
  Br  1.14992917404912      0.16688376669827     -0.31212558978061
  C   3.02800301719817      0.07488512155139     -0.11855761523622
  C   3.75568366297717      1.22381441102270      0.04775508604013
  Br  2.98338011337040      2.94748921605461      0.11793229449436
  C   5.16082836553836      1.14175532534971      0.14100185196319
  C   5.74560450649697     -0.11513968008919      0.01631272229418
  N   5.07996502291078     -1.22124427387381     -0.16183790663259
  C   3.69952857052096     -1.19860489363715     -0.19464350793433
  C   3.08822660322689     -2.48488046606340     -0.31625523047512
  O   1.88647474350521     -2.78351640416808     -0.33886965236680
  C   7.26198269762999     -0.15712316770372      0.03768648849303
  C   7.76636453938313      1.13322348912721     -0.62292103134289
  C   7.20107217260066      2.35354407757850      0.06788058872817
  O   7.83458157595218      3.34262727057846      0.31245398110650
  O   5.90447559826229      2.28638657460651      0.40927517460214
  C   7.78242139509091     -0.27445418828322      1.40150635772146
  C   8.21763438929919     -0.31968094089228      2.51691261331517
  H   3.85925340200669     -3.27411939873285     -0.39350534558725
  H   7.57343834834831     -1.02908121501705     -0.53850471537440
  H   7.41625865430152      1.14789523780654     -1.65895152741013
  H   8.84959718608199      1.21888852348569     -0.60781159109660
  H   8.58729626124900     -0.36454838539884      3.51226655447861
