21
Coordinates from ORCA-job 20230optt
  Br  1.12604091220458      0.10571683515706      0.04606268848546
  C   3.01911823103543      0.01688601759256      0.04413450807091
  C   3.72388004664066     -1.17564570032821      0.04295170172407
  Br  2.84600913942905     -2.84506415024162      0.04238745831996
  C   5.13659622971300     -1.15874432064617      0.04217868011866
  C   5.76380873073305      0.14617552300901      0.04240505922710
  N   5.03792594308537      1.27784121341352      0.04322418250983
  C   3.72119934924716      1.21683701424634      0.04412477493862
  C   7.19862004308043      0.23215834494315      0.04171813963644
  C   7.89172455128427      1.48446048266339      0.04180301541264
  O   9.12029901264567      1.60058474532970      0.04146164126010
  C   7.88583172326163     -1.00675593317879      0.04108375770808
  C   9.25424412788489     -1.42350364572877      0.04044810345186
  C   9.22998018666102     -2.77704767438626      0.03986564100901
  O   7.95107874927047     -3.26337258185665      0.04015379173832
  C   7.12954903894656     -2.17960504236013      0.04091696229974
  N   5.82114565029014     -2.32810021686624      0.04135742312136
  H   3.17336384377762      2.15264616204895      0.04489913918972
  H   7.25180825814572      2.37871709866068      0.04218264802611
  H   10.11895271107360     -0.78371324651066      0.04041617604569
  H   10.00782352158961     -3.52047092496087      0.03922450770632
