26
Coordinates from ORCA-job 20235optt
  Br  1.19867166491177     -0.27519597180007      0.39459295760728
  C   3.10155467864457     -0.01622957782745      0.25951475077471
  C   3.64051869043409      1.24326119044164      0.25985487778589
  Br  2.55129289038284      3.27211345051161     -0.73484302326562
  C   5.02887811610280      1.30045907076706      0.17916325743875
  C   5.73434552654299      0.07310358570637      0.12378955564120
  N   5.21586410997328     -1.15090853896060      0.12623364086123
  C   3.88859110886364     -1.17416654008596      0.19417315183421
  N   7.06690971107928      0.38569501910924      0.07707793803084
  C   8.30336764771590     -0.34222272749943     -0.03413386385152
  C   9.32060783665904      0.72412008041613      0.42360333282808
  C   9.44349362913163      0.67196887352471      1.95422005268331
  C   10.40332675412802      1.64662242136292      2.46958462169371
  N   11.17128683333711      2.40569960317572      2.85550247007650
  C   8.68325967284016      2.06290742447305     -0.02169842387942
  C   7.21762947679423      1.75927507230372      0.07678875697847
  C   5.99986240826259      2.36281412161328      0.14256584764217
  H   3.41558473651749     -2.15067334832637      0.20534093708704
  H   8.49463526348887     -0.65286002750626     -1.06636326689301
  H   8.29841008861245     -1.23413501706948      0.59463614166934
  H   10.30184980510193      0.56552713076789     -0.02311211420956
  H   9.76302007412491     -0.31832780081959      2.28260436427016
  H   8.46558296372680      0.87204318625163      2.40110440045479
  H   8.96557823461114      2.28983140100170     -1.05325527870212
  H   9.00107467722285      2.90040066234857      0.59983418533588
  H   5.77380340078928      3.41587725611990      0.14622073010768
