21
Coordinates from ORCA-job 20232optt
  Br  1.05378865355303     -0.32112686890531      0.18983543541106
  C   2.91298087629048     -0.08651389558113      0.00399516726362
  C   3.52259346469846      1.19058795745999     -0.11428033188576
  Br  2.44649458779307      2.73973877545848      0.14549825581800
  C   4.88000711764104      1.31414310190538     -0.34082890757504
  C   5.64672223512359      0.10290802005193     -0.52416744353817
  N   5.06186009529261     -1.11044784120263     -0.27248972977274
  C   3.77427446528054     -1.18318472865509     -0.03537481321106
  C   3.24778889187069     -2.51854420889332      0.18483720860824
  N   2.82831644157940     -3.57219881341489      0.36025362463706
  C   6.99372353561577      0.04664312317784     -1.01684920258291
  O   7.62179416736557     -1.00103890584008     -1.19942167338033
  C   7.68341595780608      1.34657581114361     -1.39888513363943
  N   7.73781810409838      2.31790584723524     -0.32090093754961
  C   6.67605091179777      3.07426159240200      0.02904123973554
  O   6.77087652484508      4.14084350749237      0.61353017901167
  N   5.42527444990760      2.60811523726527     -0.37244866783286
  H   7.19778725793972      1.79489670277571     -2.27296712558312
  H   8.70145003510522      1.07823741037216     -1.66799830145436
  H   8.62296389089175      2.72091867199859     -0.06481116232138
  H   4.74601833550408      3.32427950375388     -0.15556768015843
