25
Coordinates from ORCA-job 20246optt
  Br  2.28594011766405      1.48887385321815     -0.77835735962779
  C   3.68900618404924      0.29210350611669     -0.38422851354915
  C   5.02190440069685      0.64647716158656     -0.35715292409600
  Br  5.49172513361960      2.45845559190414     -0.70253442389931
  C   6.08863923136284     -0.23993815013468     -0.09809820075091
  C   5.73358503241751     -1.59430835095613      0.13154122123344
  N   4.37280145705227     -1.89273019432475      0.13462361107731
  C   3.29750363167368     -1.06699428823696     -0.10764813294702
  N   2.06583482996790     -1.47090510444119     -0.09077722329339
  N   6.48167633723499     -2.67588894742735      0.36745590161496
  C   7.78964506895014     -2.75985696994037      0.35538952609632
  N   8.70370545010242     -1.75549255483722      0.03813032897999
  C   10.12400532552918     -2.00318426200811      0.17932196779815
  C   10.72117181714884     -0.69045660156653     -0.31918798432370
  N   9.70824912401044      0.25427667101370      0.11761543634475
  C   8.44964285250419     -0.39018279640154      0.02797226680736
  N   7.37498660863866      0.27680757240807     -0.05081310716439
  H   4.18223454623663     -2.86742947738195      0.30971725507480
  H   2.02985370485379     -2.46506286346165      0.12484616585127
  H   8.24957454693384     -3.72902610669222      0.50374163448781
  H   10.43296935993263     -2.86333305454544     -0.41745168052618
  H   10.39023348313470     -2.18598683043547      1.22838345042685
  H   11.69291359992625     -0.48012878414738      0.12779757124493
  H   10.82806799160345     -0.72049135221614     -1.41104952786470
  H   9.69313016475571      1.15840233290776     -0.33223725899542
