25
Coordinates from ORCA-job 20245optt
  Br  1.33054500965929     -0.47620277816780      1.11013393269031
  C   3.01612398494861     -0.13316904533207      0.31501399143047
  C   3.64106869365619      1.12223467937268      0.45163664884389
  Br  2.61866728716875      2.70896636227706      0.73895700342206
  C   4.98488178445825      1.27537209079403      0.11669636974824
  C   5.69493560691339      0.22280056671260     -0.40785768207264
  N   5.03854208770329     -0.99994062964713     -0.56804570492655
  C   3.70838029645912     -1.26651146770796     -0.21747758223011
  N   3.18603254451319     -2.44438418783182     -0.36601782026304
  N   7.11564617403298      0.14659127166333     -0.45996374673575
  C   7.78542445233667      1.12328646785275     -1.28904490487914
  C   7.72643473612673      2.57784736014900     -0.81500604257284
  C   6.30661917797506      3.06386573182324     -0.66579880437912
  N   5.73640911742084      3.96881563208559     -1.32741549183310
  O   5.63799761516356      2.47774087667520      0.37551409337711
  C   9.21610049737760      0.66560563238582     -1.48936318301031
  O   10.16513607123111      1.39128551589787     -1.62360582084159
  H   5.50215768346544     -1.68221283884037     -1.14621799830493
  H   3.88328803572602     -3.08772132117481     -0.73473801553741
  H   7.53435873814888      0.12447735169222      0.47245940728032
  H   7.31137604627891      1.06042711863193     -2.28002002688508
  H   8.27753611119134      3.20966565655864     -1.51177060145825
  H   8.21478074793621      2.64325208447800      0.16165241245088
  H   6.37591603451768      4.33854282624187     -2.02800072848230
  H   9.32364146559073     -0.43563495658989     -1.52771970483109
