24
Coordinates from ORCA-job 20249optt
  Br  0.99177821462902     -0.32610533909842     -0.86753268009916
  C   2.81149869700706     -0.15954871864737     -0.39885395392087
  C   3.46322501264366      1.04875297809560     -0.29755085377845
  Br  2.44537839722376      2.63956535730709     -0.52319245411376
  C   4.82881835199223      1.15668767467332      0.06144707383884
  C   5.52670379972621     -0.05692723985446      0.31467104104477
  N   4.82907878488552     -1.26950317739899      0.19929485758964
  C   3.48656036559330     -1.41421641324413     -0.09643786572096
  N   2.88048470528377     -2.55048536592814     -0.10051813574969
  N   6.91161015339794     -0.19587378569833      0.03780771010525
  C   7.94332391359873     -0.20246631095104      0.92911366879707
  O   9.03583810104667     -0.65050833130832      0.66769116273689
  O   7.70783753770001      0.32263047144684      2.14499844198755
  C   6.78962135685762      1.41112017911980      2.34767129277336
  C   6.73429796654879      2.43226729600122      1.21712803175341
  C   5.55268356768405      2.40260337622559      0.23303033175127
  O   5.30373319775455      3.45808285428135     -0.33651638125929
  H   5.29857473187184     -2.09507096376676      0.53797043244562
  H   3.52908946477941     -3.29635166035634      0.14447080434525
  H   7.19023765063922     -0.55069866164182     -0.87234883099715
  H   7.18382639353366      1.88754798999250      3.24549054732660
  H   5.79803496936467      1.01812837029783      2.56997685153614
  H   7.67024205388338      2.41022093328031      0.65060763043692
  H   6.67752261235476      3.43114848717265      1.65358127717076
