24
Coordinates from ORCA-job 20256optt
  Br  1.02560775555148      0.03094995337311     -0.22842424622298
  C   2.89665707743757     -0.01256295929092     -0.04392417650383
  C   3.63526566501036     -1.21267039662981      0.02111717213611
  Br  2.75405846497946     -2.89232799077245     -0.05577867173026
  C   5.01714035063258     -1.21986361819231      0.14454716019068
  C   5.69398122156727      0.01535560174453      0.19771151230438
  N   4.93159580089914      1.16919918647843      0.12735429420346
  C   3.54947925388071      1.25632208279533      0.00695407654575
  O   3.02619242995960      2.37052270618099     -0.04466876488628
  C   7.07408314829358      0.02861489787246      0.32583364572064
  C   7.82950947278526     -1.13858207256857      0.40268731106192
  C   9.30642890112878     -1.09800197833103      0.57307763715411
  C   10.15160737643556     -1.40328096028819     -0.64597272546572
  O   9.76195812461491     -1.50992933745507     -1.77279691560203
  C   7.17267338218008     -2.41604254394043      0.34623560117856
  N   7.69210064076391     -3.60432967316983      0.40607696041036
  N   5.79088824397547     -2.36058735157457      0.22778874866898
  H   5.39238172082002      2.06504377409536      0.15645798763803
  H   7.57805007799716      0.98994658707863      0.37329025778898
  H   9.65146869560004     -1.78612354946074      1.35873979022313
  H   9.63314650892378     -0.10407209496910      0.90541070525886
  H   11.23735238047437     -1.51334280746825     -0.42274715499892
  H   8.70296805391518     -3.54851054761435      0.45459488723844
  H   5.33640525217367     -3.25972690789323      0.17943490768760
