27
Coordinates from ORCA-job 20255optt
  Br  1.84742596406859      0.16834074333246      1.64331362030092
  C   3.47476550553920      0.34329107828179      0.67012069856782
  C   4.29267176568211      1.48570824808284      0.76179425336195
  Br  3.37081425818938      3.21201957255792      1.00152812680813
  C   5.64017649456375      1.49736170851803      0.34422090663377
  C   6.14043169379646      0.29112848356079     -0.14226967464383
  N   5.24690830018224     -0.74428794294575     -0.42021230415457
  C   3.93018607402739     -0.84650048266012      0.04259461785312
  O   3.33192393417145     -1.91258691496056     -0.10883654951599
  C   7.58549694677689     -0.18285810847946     -0.03660917232345
  C   7.72351985113380     -1.08834895763143      1.21027318031811
  N   7.83153000623169     -0.08192515175966      2.28033022166500
  C   8.18835537883114      1.08856668753202      1.58120689055821
  N   8.11427533413322      2.29653262415149      2.22255848820278
  C   7.11032246498745      3.23735889204415      1.65401957428225
  C   6.44965147476939      2.79175679625097      0.34325169327519
  N   8.40539228813152      0.97287611687167      0.32520316142313
  H   5.59121413703017     -1.59824279283631     -0.83189372487749
  H   7.92809361642609     -0.67711582912041     -0.94972782744415
  H   8.64436594061298     -1.67571315552658      1.16714962074345
  H   6.87183443275458     -1.74509347268682      1.37569326752294
  H   6.96861018812520      0.03874787253841      2.80101434973808
  H   8.02679869435540      2.19418648754523      3.22249304313178
  H   7.58775173156714      4.20445816675363      1.48215607168942
  H   6.32620756440848      3.38031416135529      2.40232313728108
  H   7.19958061785070      2.73998258952695     -0.43793136161518
  H   5.76969534165335      3.60404257970341      0.08623569121752
