24
Coordinates from ORCA-job 20257optt
  Br  0.99560977073115     -0.19653852021848     -0.25273330059604
  C   2.88366848520971     -0.04342712071774     -0.06878582894726
  C   3.50682356599035      1.14752780756153      0.00190486504728
  Br  2.68889081245502      3.32127039276523     -1.12882260632368
  C   4.90391037364873      1.25582301921124      0.15324993786462
  C   5.62435371623223      0.09786893020580      0.23845814025667
  N   4.97976055542722     -1.09885886957120      0.16913895156889
  C   3.60778368313115     -1.29643280367895      0.01067104268485
  O   3.16874647613717     -2.43644879251752     -0.03346454201909
  N   7.00921080765907      0.00344358506351      0.39100301729247
  C   7.56171076513544      1.14445412295659      0.57589933581620
  N   8.92612029174555      1.31825237203182      0.75388528902591
  C   9.26781043276272      2.64537519431705      0.90301050212819
  N   10.39053867671512      3.18361074875593      1.12921081648755
  C   7.96942044197773      3.40985900512812      0.72865427692651
  N   6.97855627537686      2.36167422160610      0.65305010951098
  C   5.61630228694974      2.58392665391748      0.17107824321142
  H   5.53644560450253     -1.93822854990748      0.23810584543433
  H   9.54944158898086      0.53296342199727      0.83127106486011
  H   11.13440192020832      2.49227640152734      1.20261601313021
  H   8.00093795690326      4.00142886996300     -0.19336017344327
  H   7.79975648239635      4.08921069355040      1.56544763615352
  H   5.63165586832093      3.04153146657258     -0.82576702458086
  H   5.10314316140250      3.28643774948028      0.82927838851047
