21
Coordinates from ORCA-job 20261optt
  Br  1.58944012712230      0.31099155201180     -1.11275739902324
  C   3.29644551157020     -0.03657107693429     -0.40662088692830
  C   4.41971357552080      0.66032430474136     -0.74956080580197
  Br  4.33012323111545      1.96653263484068     -2.10279363886716
  C   5.70102131183527      0.35683756956093     -0.17579556713021
  C   5.71580398546884     -0.69934816139864      0.69038254966881
  N   4.60440350777477     -1.42319232874478      0.98827648057033
  C   3.33476120177165     -1.16288784545677      0.52220577584750
  O   2.38614822738107     -1.84771896518112      0.86877291914860
  N   6.92353962849201     -1.16419149646533      1.27967599278000
  C   7.63289832171483     -1.81315689266432      0.20053707591740
  O   7.65557963018633     -3.00074382516026      0.06861255462046
  O   8.20061762489210     -0.99357465472456     -0.68348905839798
  C   8.19382602859827      0.43243071232781     -0.57309308675750
  N   9.32820792926823      1.03001789665342     -0.72497297085198
  C   6.94229520652697      1.12212911596437     -0.40426194127372
  N   6.87109126201733      2.44121194741110     -0.37075073926535
  H   4.70761210948358     -2.21328938672482      1.61063998404473
  H   7.45468172625046     -0.32758168932974      1.53704884845497
  H   10.06268272985234      0.34477893817728     -0.87320118735827
  H   7.80510712315713      2.80300165109588     -0.56385489939714
