23
Coordinates from ORCA-job 20276optt
  Br  1.14676738396230      0.33066659801622      0.04023359433774
  C   3.02992367648541      0.10522670904653      0.05161146214894
  C   3.64538384334058     -1.14386410899467      0.04588575116500
  Br  2.57857364383122     -2.71577283909927      0.02372462969003
  C   5.03072333069533     -1.29491029039636      0.05545624439059
  C   5.81724899544645     -0.11819476968780      0.06668702307911
  N   7.17135943978996     -0.20831423679364      0.07059667345092
  C   7.87861914565139     -1.41364559339244      0.06184278997445
  N   9.22120386514961     -1.27122821965868      0.05985207582015
  C   9.92005142976403     -2.43022504177390      0.05187772638983
  O   11.14678597316097     -2.52242851776137      0.04724563592783
  N   9.18296931325781     -3.61900998995881      0.04942415338575
  N   7.82194404951562     -3.77797058606685      0.04856474512925
  C   7.18188867233653     -2.60287895010169      0.05563116506257
  C   5.67960949889279     -2.65948817126476      0.05566668026679
  C   5.19377802133111      1.13617806743793      0.07315503966729
  C   3.82123060622265      1.24653202102992      0.06666847906966
  H   7.74348595249735      0.62069402793780      0.07650495955087
  H   9.72174902356394     -4.46715408308680      0.04037484560722
  H   5.33364565608475     -3.23143137065080      0.92535818501007
  H   5.33484022895837     -3.23195807100459     -0.81376156166231
  H   5.80770304430853      2.02869606307638      0.08291499068837
  H   3.34951520575325      2.21948135314766      0.07248471184986
