21
Coordinates from ORCA-job 20275optt
  Br  1.13876922433289      0.23512438027422      0.06905391025746
  C   3.02652687532985      0.07011120590099      0.06413660517041
  C   3.67104475558235     -1.15269701909426      0.06515839187577
  Br  2.71495059523815     -2.78426937339862      0.07321554142007
  C   5.09447864077371     -1.18812550809162      0.06081961311684
  C   5.84489901506388     -2.34992416438213      0.05919420077536
  N   7.20881111134077     -2.29718232741069      0.05684349637612
  C   7.92757927059064     -1.12076916579150      0.05736076581021
  N   9.24057038491623     -1.24630021575158      0.05733832215266
  C   9.97519607325165     -0.09089798962925      0.05846933833084
  O   11.20559771113891     -0.07416941256113      0.05908976825803
  C   9.20666549248842      1.16997203846171      0.05906382224266
  N   7.91953839066615      1.25397252001739      0.05872770145902
  C   7.21029501895440      0.08938861137836      0.05797598051820
  C   5.77059474347677      0.09677784628978      0.05859838604560
  N   5.11108239510917      1.24795479383810      0.05755421182072
  C   3.77838375083631      1.23977058462227      0.05957373894950
  H   5.39950991386650     -3.33114371898226      0.05985493911442
  H   7.76554144438588     -3.13738201186245      0.05608617238924
  H   9.78792548457841      2.08833963772040      0.05997135672043
  H   3.27203970807891      2.19744928845230      0.05791373719642
