20
Coordinates from ORCA-job 20277optt
  Br  1.64134372684077      1.34350553610375     -0.03053925157693
  C   3.44889607662018      0.78725640101217     -0.02988860487191
  C   3.80246319230428     -0.54514530043599     -0.03119448278080
  Br  2.53394072884298     -1.95739343649825     -0.03392388165686
  C   5.14681575835402     -0.89115724794052     -0.03004687279928
  C   6.19159489739337      0.09155799488334     -0.02623058607441
  N   7.45895680074217     -0.51667614569720     -0.02508056422102
  C   7.16873812303448     -1.77839962310425     -0.02846635825715
  N   7.80778550088266     -2.97521457586039     -0.03005525852133
  N   6.92440838319721     -4.02767250906504     -0.03461772662808
  C   5.74392864632710     -3.47239802315942     -0.03535814018608
  N   5.82422458628408     -2.11201025322404     -0.03172135923192
  C   5.83921163699326      1.41660019766741     -0.02480528849660
  C   4.45963831165766      1.81258338404130     -0.02715087170210
  C   4.35305800019689      3.20417838410853     -0.02627278157949
  N   5.48664331291836      3.92593488308002     -0.02324727979313
  S   6.79693153853919      2.86670573140002     -0.02118361720702
  H   8.79509636566122     -3.14075335071876     -0.02889812783698
  H   4.81975252728363     -4.02181188737584     -0.03854410711298
  H   3.40757188592646      3.73230984078316     -0.02777483946594
