26
Coordinates from ORCA-job 20282optt
  Br  1.16866578734666      0.83186326635276      1.89876600501759
  C   2.85436394592691      0.45111116651233      1.03150218104145
  C   3.59711820268157      1.49657879364255      0.48934206702721
  Br  3.06906759999277      3.31163382417732      0.48200485539159
  C   4.85145828428094      1.16164095133035     -0.10025826046917
  C   5.86777132035295      1.87600734143016     -0.68392730893869
  N   6.87396726058078      0.98401103266186     -1.02749715559171
  C   6.47752649240780     -0.30690683678886     -0.71869322094833
  C   5.23511513580526     -0.23444996594680     -0.11311763548161
  C   4.36008047254121     -1.19217075933970      0.45859575837308
  C   4.74523010915684     -2.62461284434834      0.56934756196855
  C   4.79275145463137     -3.41495942279715     -0.73157690257193
  N   4.55776207203674     -2.98199673798738     -1.89896345279329
  N   5.15527038687475     -4.74350850520403     -0.52332296120863
  C   5.29516725534896     -5.75235757444952     -1.46233747069001
  N   5.14173460138133     -5.70765505492322     -2.71483631215233
  N   3.18936453637036     -0.81122432628324      1.03509403430418
  H   5.96841594143899      2.93407870280913     -0.85289880304994
  H   7.60694967484855      1.19945695770337     -1.67809784181967
  H   7.08961409561793     -1.15775609909634     -0.96689286116474
  H   4.03818457975266     -3.12227917390526      1.23926854254717
  H   5.74786777304095     -2.72311695447646      1.01929679502235
  H   4.31739759070206     -1.99234734828620     -1.83383912129492
  H   5.31796956234006     -5.00242568310210      0.43563806999420
  H   5.57854994733085     -6.69513063019273     -0.98921525282999
  H   4.87563591721054     -4.76248411949246     -2.99538130968238
