23
Coordinates from ORCA-job 20288optt
  Br  1.11972055910245      0.19845819703990      0.30544598982605
  C   2.98998822742282      0.05362142423065      0.16069548155264
  C   3.67155113285996     -1.12406348349525      0.13721553805940
  Br  2.76818165355578     -2.78477989021310      0.16020229631706
  C   5.09168185025916     -1.12966791274683      0.07627842535807
  C   5.78112898142175      0.09869201207955      0.31599843178629
  N   7.15292318931126     -0.05998597446811     -0.00861232699409
  C   7.39304820250022     -1.44239631894686     -0.41307216734422
  C   6.01751926028513     -2.13176525839874     -0.33227022762433
  O   5.88937937113464     -3.32618090125014     -0.59629695276921
  C   8.14960558124460      0.70182984087482      0.52564193991456
  N   9.41189436544670      0.52991614792413      0.43636259438582
  N   5.08576988345738      1.27970188409632      0.02268549237910
  C   5.49629950600600      2.57266774803101     -0.17142389042495
  C   4.34216412536995      3.30898744189096     -0.28520659435968
  N   3.24173304279724      2.52012090759933     -0.16407504965500
  C   3.71041483803500      1.29702728510928      0.01396064826957
  H   8.09767494009725     -1.92193675608271      0.27439578693005
  H   7.79384243980497     -1.52490162265834     -1.42837663700131
  H   7.77986749622869      1.55576199719832      1.09159442914551
  H   9.62924631154330     -0.29724699788551     -0.11795079322211
  H   6.53398236891715      2.84645299026584     -0.22277229712400
  H   4.25838267319848      4.37068723980548     -0.45342011740524
