22
Coordinates from ORCA-job 20287optt
  Br  1.15437912409950     -0.44460613764567     -1.26704862801828
  C   2.79868729354654     -0.09359260022148     -0.33750405189137
  C   3.37805008521795      1.14976193502061     -0.38790315610864
  Br  2.33413982945918      2.71576663735301     -0.67859803990665
  C   4.76971331620595      1.26498587223345     -0.27918246770038
  C   5.53429296519227      0.07324144702232     -0.32451968937684
  N   6.87630586156836      0.41021933861727     -0.37154772008877
  C   6.98930094204530      1.77415705023655     -0.25351470529141
  C   5.73915866606196      2.31864752077957     -0.21134431146831
  O   5.51314010070197      3.68162533106729     -0.21688122301629
  C   4.86873762700240      4.20354798772885      0.85326911404035
  N   4.65286797754796      5.43127310322038      1.00387566835672
  C   5.02369406868417     -1.22378652971747     -0.23432066762728
  O   5.66607281422957     -2.28076192139708     -0.23623598770398
  N   3.58409656792126     -1.22659424994011     -0.02471884601902
  C   3.04847410344835     -2.32080591702275      0.61608867417900
  O   1.90756607907621     -2.40265769492430      1.01917631755037
  H   7.60346942726121     -0.26342902020566     -0.20768238665927
  H   7.94131142393984      2.27736746717809     -0.25071946436139
  H   4.55004549900587      3.46561182931111      1.58743525004407
  H   5.01363318246294      5.94750234364884      0.20037340707301
  H   3.78886304532114     -3.12147379234282      0.70950291399436
