28
Coordinates from ORCA-job 20291optt
  Br  1.22467684120474      0.07104663815036     -1.08298063419979
  C   3.11391727653039      0.00459955543609     -0.74928484735845
  C   3.79379767574082      1.13555604473512     -0.39850982622494
  Br  2.78331026535250      2.96413008140283      1.22213372533226
  C   5.15580008384426      1.08667058150244     -0.13827823841662
  C   5.82924998774652     -0.13658342979198     -0.24639944111478
  N   7.22576570794620     -0.22841649494524      0.02433821223455
  C   7.57266329781871     -0.69416294610330      1.35975124489353
  C   7.45126783222632      0.36041096993768      2.46843572568414
  C   6.09316327407381      1.08786792415061      2.54082838743567
  C   6.26010185836124      2.34682057025766      1.68388755525770
  N   5.86290951107927      2.24797029698206      0.26062794583401
  C   7.76722660859936      2.61537249475880      1.76662054053043
  O   8.35585243824592      3.62707952129837      1.45951822943255
  N   8.35391187198580      1.47814216681896      2.24469486454161
  C   5.11996653629806     -1.28196568537015     -0.60217329827321
  C   3.75728830505161     -1.22503980503643     -0.85309489859230
  H   7.65527938165892      0.67525373229179     -0.15463228257648
  H   8.60429954349867     -1.06243734089905      1.34954006400024
  H   6.92805221053165     -1.54207375253750      1.60298208732167
  H   7.68393284972141     -0.12219300534846      3.42227701542502
  H   5.92592899043010      1.40753509154075      3.56939225138004
  H   5.24873912775116      0.47069592527595      2.24343842930693
  H   5.71325536885382      3.18161971973706      2.12052318386738
  H   5.25006304524117      3.03433003165194      0.07579055500115
  H   9.35804000520085      1.39501564640271      2.25377110568639
  H   5.65804204170618     -2.21776619828085     -0.69421038836896
  H   3.20549806330037     -2.11247833401822     -1.13598726803976
