24
Coordinates from ORCA-job 20292optt
  Br  1.21353671620146     -1.89468214062404      1.21465197301134
  C   2.88562112640527     -1.08238448602153      0.86378003996390
  C   3.58740499850661     -1.25169801204226     -0.27267657901331
  Br  2.90436037623058     -2.35351079028409     -1.66911317737595
  C   4.86090304815943     -0.65085897000822     -0.51025081491646
  C   5.74726779946812     -0.71819105188730     -1.59038193646518
  N   6.86560538919629     -0.01714528725506     -1.35766696681328
  C   6.73084415331649      0.53021490381727     -0.12098082841018
  C   7.81140047664932      1.31679604328238      0.50828351799162
  C   9.21245250448497      0.91981630932810      0.05488918594286
  N   9.92440736227900      2.18194318065644      0.21877230884078
  C   9.01204334269580      3.22704029730704      0.06796570323581
  N   9.23506132270451      4.46153681342745     -0.13047230484670
  O   7.77014188600859      2.74779346858664      0.18834618027173
  C   5.50112352325166      0.18125613529038      0.46781774584335
  C   4.93892796108574      0.51755020459377      1.70542604481195
  S   3.40244876179053     -0.10667033393068      2.22492201693048
  H   5.60225876233811     -1.25958644983265     -2.51429815204822
  H   7.73005534208217      1.26281631589697      1.59809813868823
  H   9.17208288676263      0.58158365345876     -0.98188866183328
  H   9.62556670729250      0.13549454755945      0.68728360285148
  H   10.78379159895978      2.30605749067403     -0.29245121443757
  H   10.23536497475953      4.62385130829863     -0.19789882516767
  H   5.37632897937075      1.21997684970848      2.39984300294427
