28
Coordinates from ORCA-job 20294optt
  Br  1.11171662634720      0.14544932708879     -0.62758215083351
  C   2.98791145774631      0.04789363311902     -0.32300597464200
  C   3.76150475874239      1.16293497069980     -0.15761621834973
  Br  2.94350676671333      2.90212469199463     -0.19068144993117
  C   5.15783845010150      1.10478568919628      0.13345222836001
  C   5.68382703791156     -0.18622388227154      0.39254143060337
  N   7.01060655248593     -0.29039377716561      0.86752854270038
  C   7.93638122800906      0.69675429834963      0.34750104028651
  C   7.43579164169082      2.08508240369771      0.71799661651883
  N   8.29664372289032      3.12349926920439      0.12013500367210
  C   7.52041523154472      3.88063308231534     -0.87776491204919
  C   6.36124157154909      2.95412374384174     -1.22067500211212
  C   6.03083545211237      2.32386378410414      0.14563933504019
  C   4.93236865997448     -1.32260531440365      0.22315115469797
  C   3.56394514552159     -1.25294544044614     -0.21578653738333
  C   2.86801506096677     -2.42745920710044     -0.52868373283517
  N   2.33296307368076     -3.43495780948922     -0.75330841364170
  H   7.35233525859236     -1.23563268788223      0.77217365795711
  H   8.04424823092046      0.64414131432711     -0.74603275498286
  H   8.92319851953235      0.53659458768599      0.78610719367880
  H   7.42508947261747      2.15803746196383      1.80821846052167
  H   8.68135034108269      3.73030477837150      0.82828443567127
  H   8.14037180482588      4.12633138837751     -1.74250376551038
  H   7.13051911358838      4.81982579509279     -0.46639345087742
  H   6.67909130111353      2.17450121801817     -1.91614288327327
  H   5.50905982612185      3.47356309714456     -1.65525224682290
  H   5.56254002410615      3.11380219872669      0.74458632729631
  H   5.36368366951053     -2.29402861456084      0.43411406624022
