22
Coordinates from ORCA-job 20305optt
  Br  1.13146017732142      0.22646101748034     -0.17567771717335
  C   3.03046869186215      0.08968964944408     -0.06868657888912
  C   3.67703775070773     -1.09631990926241     -0.04842346723822
  Br  2.92655488980137     -3.19724277192413     -1.17834502819147
  C   5.09535775965376     -1.09333387837775      0.03123965491447
  C   5.78523368243001      0.10371998211341      0.11437559310257
  N   7.12170131854877     -0.10734107276839      0.18601173448858
  C   7.31998392060000     -1.47995521300022      0.10747270198959
  C   8.67676660437806     -2.08477967556369      0.19946877258411
  C   9.79922936312455     -1.36613250566515     -0.49729704750537
  O   9.75925703006931     -0.23943614793676     -0.90939624398117
  C   6.10859172114437     -2.10477891135883      0.02623586124399
  N   5.10865307189649      1.28250784624560      0.09889661556345
  N   5.58260264209344      2.53856175163634      0.17342106745810
  N   4.53990017019905      3.29518475481883      0.13196312937539
  N   3.40573972049264      2.60716682642123      0.03490503120189
  C   3.74808150321667      1.31811431466552      0.00953770556292
  H   7.83854889118667      0.58461128426784      0.03547697595371
  H   8.64379653788946     -3.11096808828617     -0.17309803029925
  H   9.01626085914174     -2.16938456723381      1.24380489013205
  H   10.73732383785687     -1.95088708201387     -0.57658548113922
  H   5.92844985638525     -3.16545760370199     -0.04130013915365
