24
Coordinates from ORCA-job 20301optt
  Br  5.71597825631421      2.09631114153921      2.99864712594866
  C   6.04896539187988      1.70781928227555      1.18340680899067
  C   5.33929411809107      2.24401077972250      0.11176564194179
  Br  4.13803040585407      3.69174933487534      0.42744245338376
  C   5.61591641078657      1.86772723062635     -1.18299705187150
  C   5.64519126253548      2.80761314183673     -2.31154101025986
  N   6.18377919994974      3.98039383834905     -2.28065529924864
  C   6.91917424924266      4.42410009739940     -1.20847075420131
  C   7.77030531806458      3.63469568979368     -0.43785314106062
  C   8.33515523888465      4.01121872978460      0.76197399172123
  C   8.98409208549535      3.16731318923493      1.73503538168461
  C   8.92461944273401      1.86461346400891      2.10266366978366
  O   8.22003792477842      0.78294012924377      1.67332864467320
  C   7.16689039976909      0.94133970289415      0.79632988815912
  N   7.31722810853219      0.38203048530448     -0.35836003634422
  C   6.38144541481130      0.62538516791915     -1.36024773018105
  N   6.29744664089388     -0.07347409450761     -2.43809324750953
  H   5.27127687767382      2.46510127058216     -3.27286412378825
  H   6.81863842736873      5.48182800194750     -0.98229189848988
  H   7.93994023010860      2.62304525287851     -0.77991187162791
  H   8.24974461141972      5.05542931815024      1.05255789259977
  H   9.63381989893862      3.70845414656556      2.41735090716848
  H   9.55270404513698      1.55137948498979      2.92667253212161
  H   7.00532604073620     -0.80502478541405     -2.39488877359375
