27
Coordinates from ORCA-job 20303optt
  Br  1.21399328773650     -0.32832073414666      1.34547029962973
  C   2.74389669587806      0.19130829897480      0.22577445487873
  C   3.49250891798590      1.29442273182698      0.53437196103124
  Br  2.56819250534655      2.86891542011799      1.26065160383826
  C   4.87097283917753      1.39235885813546      0.29738198618373
  C   5.68169324099995      0.26666995629545      0.01167421162640
  N   7.09584364244937      0.38217085641998      0.21957741571764
  C   7.85462855418144      1.07747581815390     -0.81567547871282
  C   7.75137843851446      2.59485187153924     -0.73290592170852
  C   6.30816763821138      3.08141468377354     -0.74489101859513
  N   5.53274834144105      2.62810200739972      0.41023005895530
  C   5.17106109150957     -0.99785695642059     -0.40400812826360
  S   3.40774489313884     -1.06681580724454     -0.74853328965821
  N   5.72421465760785     -2.13246420305843     -0.68110274243776
  C   7.15444200124711     -2.29473147370849     -0.62664303933696
  C   7.53159889967480     -3.64353970115713     -1.09291611219858
  N   7.88970412534403     -4.67237114031341     -1.45178700112842
  H   7.26667771784613      0.83390593457265      1.11197012498034
  H   7.47829665890479      0.72953086693003     -1.78138554803546
  H   8.90587466059126      0.77509726478207     -0.75021513122160
  H   8.29416038976226      3.05211285570540     -1.56633289893421
  H   8.22356497924977      2.93787320512548      0.19336105984970
  H   5.82533614252166      2.76122872649147     -1.67738414037234
  H   6.30104645270997      4.17324584962576     -0.72888020605574
  H   4.89347668809298      3.34323733428758      0.72137078946850
  H   7.56387813581900     -2.17804627013882      0.38097560800496
  H   7.70689840405753     -1.58877625396942     -1.25714891750515
