28
Coordinates from ORCA-job 20309optt
  Br  0.96757579730859     -0.01934259854880      0.03012670440361
  C   2.87531952010166      0.00663227777298      0.10055637758781
  C   3.57824115663042      1.18901386728356     -0.07137316564837
  Br  2.71396400908065      2.86008000398658     -0.33406452323415
  C   4.99491139267601      1.15628781794305     -0.02988075834648
  C   5.64168543539538     -0.04150062194370      0.20869856720456
  N   7.03988061944281     -0.08493452532619      0.31102563797631
  C   7.74901122625654      0.97734377652294     -0.35861772842982
  C   7.14342036364942      2.29504328172069      0.10163788816141
  N   5.74814519527572      2.32139108577939     -0.29023511636536
  C   4.93018463253336     -1.26860868700422      0.36618334359597
  C   3.51142480892782     -1.20157115867063      0.30966291955840
  N   5.65930288267814     -2.38848516257017      0.53250296209158
  C   5.08790086217395     -3.56389408196737      0.73075022610830
  N   5.94498958530451     -4.66632430910324      0.90835471049959
  C   5.58565156172618     -5.94861312189807      1.11289108392209
  N   6.32788688298655     -6.98935933222846      1.27143133903884
  H   7.36834758644026     -1.03039383692556      0.15865606802341
  H   7.67068392504118      0.92370805903412     -1.45415541208585
  H   8.80507192202433      0.93758457134712     -0.08490710891279
  H   7.65306185455851      3.13521960619175     -0.37483488558740
  H   7.28083894967576      2.37252944270043      1.18810882501067
  H   5.26293652355356      3.16633932533886     -0.02768057183634
  H   2.91485502340978     -2.09622639719943      0.39690562752697
  H   4.04038770626845     -3.75783811674874      0.93152678087590
  H   6.92791035253714     -4.43965912533893      0.84596083699153
  H   4.50418985246183     -6.08334185497055      1.14293451119544
  H   7.31522037188135     -6.73408018517740      1.22383486067416
