24
Coordinates from ORCA-job 20308optt
  Br  2.35588299624550     -1.28590465437587      1.56828092712203
  C   3.94546838736522      0.09525441315771      0.27376004806731
  C   4.15464700303242      1.40271604701546      0.27053937850571
  Br  2.68593429893572      2.56167750195883      0.71226179703694
  C   5.43436008960846      1.99634997069328     -0.16052487053323
  C   5.36263132590018      3.17670428811712     -0.82381267667754
  N   6.46523212398653      3.97361608494736     -1.15378603798005
  C   7.53776735468902      3.77857353975331     -0.37107790191829
  C   8.86567899231376      3.84322336634848     -0.55788809511639
  C   9.60017759362954      3.08446213563160      0.42788051053057
  O   10.77594450905285      3.19770989406603      0.71847823719874
  N   8.86053837511852      2.03578687833763      1.05015273193321
  C   7.88671102165480      1.13320235019850      0.58621228526244
  C   6.61077061421897      1.08385611810410      0.09812007758296
  C   6.28611148249764     -0.40092076350901     -0.12417981549249
  O   7.14424002277069     -1.24384136832074     -0.32760217179311
  N   4.97533537719232     -0.75208649927814     -0.04792238975558
  H   4.39519473443361      3.60154268402654     -1.04460531282467
  H   6.56382412792352      4.33059390243079     -2.09148880763783
  H   7.21715633293809      3.44647117612851      0.60470457459680
  H   9.38091891290382      4.22979962942758     -1.42414494726471
  H   9.51972796774416      1.54955878612223      1.64336517162424
  H   8.27737762181063      0.12938137675577      0.70437759817058
  H   4.78136873403377     -1.74472685773715     -0.07310031063762
