23
Coordinates from ORCA-job 20318optt
  Br  1.02732925297847     -0.07452815801091     -0.56602117998236
  C   2.86813557970873     -0.09556136108156     -0.02896895665262
  C   3.52427265860003     -1.30383352510874      0.24459248507096
  Br  2.56613852106827     -2.64515088317610      1.24490605253944
  C   4.95623650795462     -1.33542955373040      0.28661457988432
  C   5.77256686535672     -2.44980748980357      0.29094294184898
  N   5.28861490003341     -3.76042517977251      0.13951363169741
  C   4.58343303149648     -4.01080674555318     -1.10466496603742
  C   4.04907623022962     -5.37633263461055     -1.14111037307298
  N   3.64826470458414     -6.44803787434641     -1.20806898066844
  C   7.20625296947977     -2.34924808714819      0.49963648587887
  O   7.90829464411386     -3.35880453524782      0.56584153036981
  N   7.75443468014054     -1.07881208984984      0.60362658382735
  C   6.96726411472287     -0.06643902251614      0.46981102923737
  N   5.62645047556224     -0.09322166283211      0.30437840542680
  C   4.92618274575204      1.11157486762403      0.09398193580534
  C   3.58073851211719      1.09480544474063     -0.13445250353939
  H   6.08705021561129     -4.38007276766264      0.24874220635642
  H   5.21515744339955     -3.87583534799285     -1.99321168761772
  H   3.74206712591315     -3.32008014017803     -1.19440977605915
  H   7.38912896056210      0.93483277199150      0.48196665725188
  H   5.53387127345093      2.00164618264812      0.09196221093037
  H   3.07903858716389      2.01456779161732     -0.40160831249522
