22
Coordinates from ORCA-job 20319optt
  Br  1.60112952463243      0.68709222960941     -0.34413708099760
  C   3.38252614481842      0.09865235100451     -0.06220218520076
  C   4.46696891372566      0.95753801675191      0.03910217732522
  Br  4.19314575395215      2.82515858198743     -0.15253247047271
  C   5.76115779547447      0.46199623912569      0.20515266175294
  C   6.00405538711905     -0.95492871124287      0.34677280180161
  N   7.15147704591594     -1.56621719690110      0.68400782869430
  C   8.37873277101671     -1.07858967924320      0.80130099427048
  C   8.92583059887264      0.12746057697086      0.25863378482591
  N   10.11226818004575      0.55310756753459      0.51646128311359
  N   8.00598371859377      0.84176080428671     -0.61623152461872
  C   6.94994109653492      1.34526587944841      0.20294806176889
  O   7.08480066887177      2.35314566257890      0.85093081900857
  C   4.85110101356864     -1.80317924813531      0.21177038713904
  C   3.59280622908048     -1.27848321269643      0.01544903182197
  C   4.99205057963257     -3.22303227666723      0.28048328247695
  C   5.05990443695677     -4.42171361139486      0.32294279638506
  H   9.09250714249146     -1.71922583146239      1.31092933435845
  H   10.26018168554931      1.41719152196714     -0.00124020794913
  H   7.61018003142281      0.15253880893689     -1.24866079306073
  H   2.74989865244802     -1.94918275500549     -0.07696198711647
  H   5.14535262927621     -5.47935571745353      0.37108100467315
