22
Coordinates from ORCA-job 20315optt
  Br  3.30199099271391     -0.96766768187951     -1.39576821458550
  C   4.36751144505264      0.31262166528514     -0.52042280018959
  C   3.95218089937297      1.40176294417783      0.14634564745448
  Br  2.11439449125608      1.91153830369564      0.20379686778575
  C   4.93613407615138      2.22545193266518      0.82888788009379
  C   5.00150598353444      3.60594204781949      0.67478466722358
  N   5.99710014237480      4.43984873362548      0.92814530910042
  C   7.30097800223523      4.17972672072927      0.90328060084980
  C   7.97360406681636      3.22868492110937      0.09465183273499
  N   7.35923663017506      2.60224494026364     -0.86972052135577
  C   7.80902917021865      1.43387306226984     -1.46447666466708
  N   8.95847204467536      1.12820802780237     -1.92322317220582
  C   6.58771526803477      0.56457980173481     -1.63607932780518
  C   5.84600650653574      0.27690738885406     -0.57249446497751
  O   6.42235802580114      0.36180477933056      0.68383900008217
  C   6.05887160028869      1.48175300608032      1.40614040426529
  O   6.66902325019703      1.73142407196184      2.40753988326525
  H   4.08909618432131      4.07917630440470      0.30990599233603
  H   7.91901009635738      4.77493982072866      1.57074873771766
  H   8.99637279850606      2.97118107370432      0.39661841860634
  H   9.60483912263176      1.89857312971337     -1.74072197822471
  H   6.15156920274915      0.47842500592359     -2.62377809750441
