23
Coordinates from ORCA-job 20323optt
  Br  1.78654166444504     -0.81996212963775      1.18456172588254
  C   3.15598476536561      0.03182219707756      0.00059654215060
  C   3.79163026481908      1.19887297224072      0.41998533112860
  Br  2.72874422459003      2.64776997116512      1.06614070739139
  C   5.15819102167229      1.33822093614266      0.24789771542992
  C   5.89455472833737      0.23529313627196     -0.21898890577382
  N   7.31055028138433      0.26556967304266     -0.17283180847288
  C   8.05186353378925      0.99734319058679     -1.16996352221829
  C   7.85650783202766      2.50100449494455     -1.12766105735159
  O   8.69932801638923      3.22826239034005     -1.59360144155608
  C   6.54429154457736      3.11799486694933     -0.65565315025785
  N   5.85923047292017      2.52360230116299      0.48846773057565
  C   7.98390860660905     -0.45866709824111      0.75645534013905
  O   9.19114042976038     -0.52515679979075      0.85995659214714
  C   5.25912878527878     -0.92350509226152     -0.73124760939595
  O   5.77549476187466     -1.90029403333657     -1.22323151191535
  O   3.85712874035505     -0.90407803500433     -0.67667400195288
  H   7.74174581777054      0.66668060231604     -2.16847641563141
  H   9.11376551323976      0.79114091172476     -1.04946458491375
  H   5.89924697271115      3.11853453943077     -1.54942883340035
  H   6.77823902083589      4.15497097693892     -0.42133759722777
  H   5.25812498209763      3.21126617805235      0.92174389991409
  H   7.29465801914952     -0.99568615011523      1.42475485530903
