20
Coordinates from ORCA-job 20334optt
  Br  1.40995375144446     -1.00042166160995     -0.89015417858692
  C   2.84359013830118     -0.22436588493741      0.28653746075644
  C   3.36741086629491      1.02547472765875     -0.00300567486207
  Br  2.19629695181043      2.43173039950010     -0.45680893500230
  C   4.75367249885735      1.19979180887534      0.00206478043741
  C   5.72144907722869      2.21939601233479     -0.06631752706411
  N   6.98886084756429      1.66162994939953     -0.17655274766884
  C   6.84473580648796      0.38368885159301     -0.13654951233123
  N   5.51837002251305      0.01903167099939     -0.01117771966662
  C   5.00203337284727     -1.24897693530903      0.23214475053361
  N   5.60965830478772     -2.35382131490233      0.16607851960632
  O   3.72254529948687     -1.22741589119796      0.66051199419966
  C   5.65363392620844      3.64258211979416      0.01181235039236
  C   6.62457010952449      4.58497314445000     -0.21946721813130
  N   6.07590304975737      5.79609619075816      0.06428753981734
  N   4.88552909889410      5.67123282684664      0.43820522702372
  O   4.57215077814990      4.30192574000872      0.42409384863970
  H   7.63899011106490     -0.34426051654255     -0.15884196162795
  H   6.57346718037544     -2.22827452208145     -0.12312942407212
  H   7.63617880840109      4.45798328436208     -0.55373157239311
