23
Coordinates from ORCA-job 20332optt
  Br  1.16947874393717      0.07122222488774     -0.54997886533640
  C   3.09061396620609      0.08664366513500     -0.33949476841237
  C   3.75922314093412      1.30828540509158     -0.36694254575363
  Br  2.95333840459062      2.98829330022593     -0.62646596719260
  C   5.17514492110236      1.23581067909178     -0.15983388278938
  C   5.74004473437771     -0.03382232741263      0.00619750633989
  N   7.07533421292739      0.20605943652709      0.19640341788231
  C   7.25937465286171      1.57216134275802      0.14447151984513
  N   6.12931547323693      2.20543842917919     -0.07795566051199
  C   4.98741082659973     -1.21480441186825     -0.04126060031776
  C   5.57004257194341     -2.56105174009639      0.01321949553830
  O   5.98348921917076     -3.05526776334351      1.34014179619949
  C   5.00524635716778     -3.33901032160572      2.21998915060039
  N   3.75963330931274     -3.16486416294687      2.14532067979344
  C   5.57383785029621     -3.95374742198367      3.41171936139534
  C   6.04050790162534     -4.45755997097418      4.39263998299162
  N   3.61522989661117     -1.09783076571953     -0.18590147169737
  H   7.76309625070200     -0.48287188328091      0.44445073900503
  H   8.22913253912775      2.02576695395003      0.26300476493629
  H   6.51448168871524     -2.62397748674085     -0.53324791824924
  H   4.86227887400869     -3.28650517925128     -0.39475564391950
  H   3.46324924069644     -2.67281057427537      1.29717632838010
  H   6.44549522384855     -4.90155742734716      5.26910258127290
