23
Coordinates from ORCA-job 20337optt
  Br  1.05554359364643      0.67064013839306     -0.26088407413236
  C   2.82074290919345      0.15164219699974      0.22239331684269
  C   3.38117658959726     -1.04629006008393     -0.04005329569101
  Br  2.32838337322049     -2.44655991381186     -0.78778339514877
  C   4.80198120963264     -1.18017483856081      0.07229301007103
  C   5.75156741202123     -2.20220117710400     -0.07299724230097
  N   6.99077071566918     -1.55158502160913     -0.29543391680210
  C   6.91471762770080     -0.17688949523324     -0.22182639314854
  N   7.85560630282442      0.70003248554554     -0.31515669841666
  C   5.49512695649989      0.08621637821442      0.03599649125467
  C   4.86090875194763      1.24918223385769      0.27536163949667
  O   3.53830001659646      1.18326773930788      0.75413127481044
  C   5.75712157880414     -3.61478928376256      0.00201558554611
  C   6.78570034181405     -4.52394505728428     -0.29636705851165
  C   6.26000605743276     -5.78464771801517      0.01716922010501
  N   5.02129706027719     -5.71673023493355      0.47377982767430
  N   4.74213358999670     -4.39477325691242      0.47065518652344
  H   7.86434096053081     -2.03661103343347     -0.17910289377838
  H   8.75329064718493      0.24522782861087     -0.47231544022928
  H   5.26293473051836      2.24679688512561      0.22326617660898
  H   7.74984239397683     -4.29940648048583     -0.71950578575730
  H   6.73609240718258     -6.74888124119511     -0.07935926646322
  H   3.82241477373166     -4.08152107362943      0.72572373144690
