23
Coordinates from ORCA-job 20349optt
  Br  3.13699889579958     -1.05037188060040      1.84367009496605
  C   4.48885415531101     -0.10150565347058      0.94320353327308
  C   4.59718373732610      1.22918020531603      0.87480700664490
  Br  3.34616091943694      2.35098131489002      1.73499150422730
  C   5.68723784782002      1.83233981796043      0.11457077281258
  C   5.74911296422358      3.11636676038610     -0.29864086070474
  N   6.66026185756443      3.55614167580615     -1.24204129274224
  C   7.53823774408364      4.66629609297597     -0.95047235526033
  N   7.19744799468127      5.89342372028627     -1.23592139782244
  C   8.80223326859727      4.33855607616912     -0.39088312493911
  N   9.23797178597681      3.25601846765489      0.26417100228511
  C   8.63798065882738      2.10760259240733      0.58014039991198
  N   8.63414699116352      1.49624933616609      1.70298013940303
  O   8.00236422452772      1.36987039854375     -0.48126164634549
  C   6.77465258451260      0.87437763282503     -0.14481970649116
  C   6.58793551105709     -0.43131863965993      0.00022075456878
  O   5.35989814682508     -0.95938815420010      0.36396009160987
  H   5.05448710973753      3.86038219249925      0.07316836426634
  H   7.21161229580231      2.78777584785044     -1.59623185370497
  H   6.29784607996670      5.87260136360743     -1.71282809485629
  H   9.51166652776112      5.16081605495187     -0.42708831842247
  H   9.10160464419051      2.09487178918720      2.37712888899116
  H   7.35610405480751     -1.17926701155246     -0.10482390167094
