26
Coordinates from ORCA-job 20342optt
  Br  1.44078452806404     -0.57163273320394      1.57093267337978
  C   3.08090093598835     -0.10158032221515     -0.05691171976482
  C   3.68374988221000      1.11170469296788     -0.11550934811331
  Br  2.58996011089122      2.66614821342188     -0.04943214136157
  C   5.09773277826245      1.23215332718994     -0.24902391447850
  C   5.83705263128318      0.09204297212048     -0.22358466769069
  N   7.22978097766738      0.09008832090642     -0.34432820448634
  C   8.00687218412027      1.20514460637425     -0.21013573680666
  N   9.27570314945463      1.26328341572005     -0.35890233619528
  C   7.23453448957435      2.43631699152700      0.19593007359843
  C   5.84969967932770      2.52017307718197     -0.44553839653947
  C   5.21433362556161     -1.19771555710525     -0.13545323321119
  O   3.85609323665162     -1.21080108241836     -0.12679898329206
  N   5.88943715905489     -2.28527959252633     -0.09554706334848
  C   5.12588027723837     -3.49664001785839     -0.04298931987924
  C   4.51853348458476     -3.92638849466791     -1.35801039556835
  O   4.61194800082908     -3.34456975605360     -2.39988916727426
  H   7.64332801325682     -0.82585697009196     -0.45892858839647
  H   9.65376697073742      0.34658857790816     -0.59799170258562
  H   7.84593492383428      3.30554975668026     -0.03501971324892
  H   7.11494685811580      2.38843330340537      1.28294715703107
  H   5.94263663223415      2.70944414495831     -1.52094464606446
  H   5.29103131912292      3.35489222214496     -0.02631740964296
  H   4.28587340117391     -3.45250937362602      0.66676411377918
  H   5.76243209178320     -4.32847984261842      0.28052220314774
  H   3.95005265897734     -4.87950988012155     -1.29483953298752
