20
Coordinates from ORCA-job 20340optt
  Br  0.86090995288160     -0.36153853212024     -0.11772132980941
  C   2.72595813633258     -0.10689814328712      0.14021847862155
  C   3.39450298536882      0.99680932936913     -0.24142555913128
  Br  2.44848181145097      2.29460654312701     -1.27753804832561
  C   4.83542754907911      1.14711232863984     -0.09828323175316
  C   5.61925225434778     -0.02696201703868     -0.01632470821499
  N   6.98602378860127      0.05756313628559     -0.21406131082253
  C   7.73218690946510      1.21806943217368     -0.28603858322925
  N   9.00957950111717      1.24083838075391     -0.42963657269549
  C   6.92712529605428      2.41792881473145     -0.15719504048018
  Br  7.87660551370030      4.04102106620754     -0.07633876219126
  C   5.54035897517874      2.38390083779425     -0.07450974653815
  C   4.85082518668778      3.61482750072686      0.16311258269551
  C   4.32917645993644      4.66030920859356      0.43390127221595
  C   5.18471446888751     -1.32127861382813      0.32876678464770
  O   5.91475210668875     -2.31804924547202      0.41036632430686
  S   3.47045710011971     -1.51459887056803      0.84422885650937
  H   7.46768893925603     -0.82721220016373     -0.11615200497460
  H   9.37341558903702      0.29205236161891     -0.49098224951756
  H   3.84555747580894      5.58149868245620      0.64861284868654
