18
Coordinates from ORCA-job 20354optt
  Br  1.28741803026524     -0.21156775374273     -0.15300862638853
  C   3.16042363619185     -0.17389471848107     -0.11575504962570
  C   3.95034604179282     -1.26716553149264     -0.02227235419326
  Br  3.33056867551782     -3.02709939502986      0.07532906210265
  C   5.33386643991247     -0.98084415515507     -0.01171008670452
  C   5.87477862480759      0.27196509268088     -0.09237651865901
  N   7.23734179310000      0.20397277636506     -0.05719250742056
  C   7.47425876597041     -1.09089509776742      0.04103452801683
  N   8.67107462135033     -1.66526121890111      0.09105730620934
  C   9.01111867365608     -3.05407134469110      0.24252630818342
  O   8.14226021148973     -3.93173044397244      0.41826575750902
  C   10.40901428604397     -3.24704058058627      0.16524586671950
  N   11.56407246365822     -3.39534635473167      0.10205459631851
  O   6.34433472893585     -1.87019477467506      0.07526654067052
  C   5.01698761811325      1.42402655253166     -0.20055592144553
  O   5.27908874312798      2.58410477343765     -0.29152865016901
  O   3.64948182083259      1.06913701624737     -0.19547367306707
  H   9.43356482523373     -1.00709484203616      0.02909342194339
