24
Coordinates from ORCA-job 20357optt
  Br  0.95663195288389      0.12474700470852      0.26605679047873
  C   2.83032946645605     -0.07599634472430      0.14553997957370
  C   3.44735161196299     -1.27999369367421      0.18805052657575
  Br  2.51463003048119     -2.90324698838173      0.36816205470275
  C   4.86841584696583     -1.35919079210337      0.11618612613429
  C   5.82074353100274     -2.34346951065454      0.10162619901300
  N   5.75258393939733     -3.70560680062734      0.13473693366152
  C   6.93185352643664     -4.50849171220983      0.13929461874735
  N   7.98418384191400     -4.24480396475223      0.89758942697426
  C   6.82930899275696     -5.62111905552686     -0.73675792164897
  O   5.81904776566047     -5.84860379248809     -1.45707515239715
  N   7.04921920580771     -1.69908771395453      0.03279737452184
  C   6.93712591747824     -0.32875835121372      0.01148950444875
  N   7.81378578798619      0.61173798893339     -0.02871569977979
  N   5.57897097635778     -0.11598134614225      0.03992536469081
  C   4.94207284666171      1.09609519610551     -0.01750995613485
  C   3.60255339947292      1.15109643386464      0.02335640769004
  H   5.02668194656603     -4.14033101279613     -0.42789912483035
  H   7.72902630545420     -3.57073266240712      1.61685024759854
  H   7.69261747406804     -6.30076112175203     -0.72111407805233
  H   7.91468460537969     -2.22748268580810      0.05720474977949
  H   8.75120134231550      0.22784724544738     -0.05356423402474
  H   5.59673481054059      1.95211538483657     -0.09595313335520
  H   3.08924487599316      2.09801829532038     -0.03127700436745
