20
Coordinates from ORCA-job 20358optt
  Br  3.01093606652893      1.97608640300944     -0.29746878859940
  C   4.25633801320485      0.57196205284956     -0.23911743549285
  C   5.54977615969403      0.63591156144046     -0.63935847213099
  Br  6.24750556595632      2.21478039601596     -1.40425180902696
  C   6.33618056785035     -0.52214787237920     -0.47590087379835
  C   5.81028049941646     -1.71138379092266      0.03594153058962
  N   6.65237135777974     -2.73744599495665      0.08534725088708
  C   7.88855803824909     -2.21683813096481     -0.38155210623973
  N   8.89926868530805     -2.16059180907995      0.69143396414815
  C   9.89444845911693     -1.25123250299868      0.73809667555403
  O   10.75440908643849     -1.19242828596068      1.58487084155678
  O   9.90823499788872     -0.35744658684565     -0.29040159520118
  C   8.77701438233535     -0.09031920444081     -1.07442031971520
  N   7.66138032617390     -0.82378333935329     -0.81148362824758
  C   4.41923045919476     -1.75226482392538      0.45535331179716
  O   3.80943592388417     -2.67037235556751      0.92983112744485
  O   3.73173460664568     -0.55017418607698      0.27854199340930
  H   8.32266073584652     -2.78671923187683     -1.21329917104940
  H   8.74439314533620     -2.73583138225554      1.50381203616312
  H   8.68484292315125      0.95723908428921     -1.30197453204844
