24
Coordinates from ORCA-job 20353optt
  Br  1.11523675913029      0.15755181452263     -0.30142532365975
  C   3.00113613073372      0.02430933960930     -0.11713753186876
  C   3.69012384494428     -1.18774264928945     -0.00020702375882
  Br  2.67808427708237     -2.78693874130380      0.31318317084780
  C   5.06924664080622     -1.25130384374628     -0.04764593163408
  C   5.84036423566460     -0.06240997886786     -0.32352029830866
  N   7.16379049008531      0.00632744295511     -0.52276551703053
  C   7.97723166910384     -0.95363765267331     -0.88495553347476
  N   7.63681592150623     -2.25725450095281     -1.30344359475185
  C   6.64023539244170     -3.06071340830784     -0.85031912894363
  O   6.42688885836319     -4.16432401297595     -1.33049518600028
  C   5.86103515832770     -2.48408324155947      0.30897053909804
  C   5.10601467098990      1.16553335493052     -0.29866683613752
  O   5.77714446954638      2.37137920864080     -0.45943023459845
  C   6.75199590224046      2.66327135181517      0.42708245766022
  N   7.43564995949255      3.71951324435725      0.38355838352865
  C   3.74553956899207      1.20966871683197     -0.22466212034689
  H   9.02310947308513     -0.71545669759775     -1.02555104280246
  H   8.20902207735577     -2.68170790291892     -2.02081422594322
  H   6.59394710338337     -2.19619771581255      1.07162992781158
  H   5.22853181327887     -3.27184280715197      0.70131544925608
  H   6.88991760590736      1.92249898918262      1.20963913863271
  H   7.16135390450515      4.26959244492531     -0.43188393202713
  H   3.24658407303344      2.16796724538730     -0.27545560554829
