22
Coordinates from ORCA-job 20360optt
  Br  1.11583732581456     -0.43394027457905     -0.35207085558089
  C   3.01623066632035     -0.28566903616797     -0.17417942672847
  C   3.61939090374926      0.97910880860783     -0.05383564325574
  Br  2.66900117976655      2.59303003348372      0.10728307879555
  C   5.02569633231872      1.01416340278259      0.01472159005447
  C   5.98273751540465      1.99194997130444      0.12296530076868
  N   7.24480519579979      1.32579495096130      0.18460898218146
  C   7.07601615463578     -0.02420481705091     -0.04074742895851
  N   7.95714155062826     -0.94440388929197     -0.23101062398001
  N   5.70921891837642     -0.22000272279923     -0.03387829698505
  C   4.99551798612462     -1.43795140031977     -0.15039391394108
  C   5.68745696485743     -2.73407018102887      0.13743939909144
  C   5.97385899259646     -2.92437415413538      1.57065766227070
  N   6.18017592829063     -3.07126254418508      2.68988509446704
  N   3.66914067929989     -1.41848437219043     -0.19477594576234
  C   5.92948516587435      3.38993532818575      0.18011319477513
  C   5.99150357554150      4.59500276771823      0.20830277754267
  H   8.06844773156136      1.78052162285321     -0.17211432895533
  H   8.88873805392088     -0.55407212643012     -0.13768881330522
  H   6.63641195567031     -2.81598441148101     -0.38991511690797
  H   5.00688254938119     -3.52650621739971     -0.17227534709407
  H   6.00430467406697      5.65641926116244      0.23790866150752
