21
Coordinates from ORCA-job 20369opt
  Br  1.21313105150055     -0.15878384360178      0.13872241315733
  C   3.13908275817438     -0.03852821649113      0.04189041027873
  C   3.75440220680587      1.18774308859946      0.05370286411522
  Br  2.71792384852333      3.20217854675985     -0.94356675241772
  C   5.12973480085508      1.11621641793432      0.00540000936829
  C   5.89964552912163     -0.05000148458279     -0.04427501716112
  N   7.25086058713081      0.29155403537777     -0.07071538956483
  C   7.22809470245347      1.57511246760794     -0.03820317595714
  O   6.02313782208875      2.16386303308153      0.00995980801197
  C   5.23737609541921     -1.27307339499288     -0.05937873586730
  C   3.83308610045412     -1.24721286538801     -0.01178398662436
  C   3.24654965424511     -2.65423868661665     -0.03149391920470
  C   4.50341229761488     -3.45509008201379     -0.09630983056413
  C   5.63199047078581     -2.67912640200895     -0.11257156623164
  N   6.72438801318510     -3.48024402890979     -0.16821788810450
  N   6.31993170702310     -4.71076348606204     -0.18779053861478
  N   4.97147557245605     -4.70960499172205     -0.14423141436987
  H   8.08192696820251      2.23502091076043     -0.04682328581992
  H   2.59284929528125     -2.79730415944446     -0.89487968440556
  H   2.64980099782310     -2.84989616606053      0.86206883585510
  H   4.48819952085555     -5.59082069222634     -0.15250315587905
