25
Coordinates from ORCA-job 20368optt
  Br  2.72271079723776     -1.31927432271240     -0.88324992650604
  C   4.03080037351544     -0.02864695402172     -0.42132104446498
  C   3.75437684611384      1.20602027045456      0.05895514187662
  Br  1.96422375703202      1.78208238796613      0.30907973087481
  C   4.84105518889346      2.11097730686699      0.38784085813964
  C   4.74180560943404      3.46071996875400      0.35853809660192
  N   5.80479150133964      4.37064530496834      0.48459226158619
  C   7.14087786684007      4.19318892379302      0.16219468497026
  N   8.11613522719173      4.77237445595775      0.73894372684979
  S   7.42210832068409      3.21330835788129     -1.31562889630308
  C   8.82038278498532      2.22911621314609     -0.91827946893897
  C   8.78397877988360      0.87132776247126     -0.76434094148531
  C   7.69108870108838     -0.03071166981790     -0.62214316062382
  C   6.41400273942475      0.31370158172976     -0.19310354999896
  N   5.31449730525645     -0.45973127589387     -0.58656935230814
  C   6.11404504624986      1.42196435618378      0.68455568672576
  N   6.88500420763528      1.89046634563639      1.61439839837216
  H   3.77900955158142      3.92912119411676      0.19503850733043
  H   5.65684113267015      5.12725587087072      1.13783949258762
  H   7.80556066826301      5.19673502715766      1.61332002307369
  H   9.77595011377928      2.73216594054669     -0.96399793796099
  H   9.76591138231472      0.39924907258978     -0.78766342730985
  H   7.85679449156527     -1.05649884774597     -0.94449607311284
  H   5.47601486963449     -1.15920545990890     -1.29290090852161
  H   7.74403273738582      1.34264818900973      1.64839807854570
