21
Coordinates from ORCA-job 20379optt
  Br  1.23300879031370     -1.38540250110232     -0.35837808354707
  C   2.84636782060691     -0.44523257880681     -0.16623554919900
  C   2.99928527396866      0.88976605807670     -0.24419022578986
  Br  1.47140228474780      1.96591374054905     -0.54439434425150
  C   4.29226443771856      1.54541657245765     -0.11207959047557
  C   4.51528615861451      2.86842751835695     -0.23749012547098
  N   5.70932464424872      3.51315267520746     -0.14408802720356
  C   7.08051962264220      3.18902219442358      0.14588611583196
  O   7.80663046071306      4.20165700526728      0.15359272414203
  C   7.60026714097940      1.87029752767559      0.39914675913008
  N   8.88952918614720      1.70889936517366      0.66117610446590
  C   6.75698911084213      0.67057989545147      0.37264959224406
  N   7.25835630427154     -0.54505070461396      0.56883865417955
  N   6.20832900739546     -1.40464978194037      0.46841780420802
  C   5.07447056573379     -0.73757421476279      0.21432936727880
  O   3.86400948966412     -1.34473565763216      0.05952466211229
  C   5.35152839461019      0.58633456760467      0.14340945169620
  H   3.68386335212246      3.52935159730223     -0.44182520192811
  H   5.67268613761803      4.51236569399249     -0.27017943726521
  H   9.30518494984789      2.64015287804767      0.63207721192072
  H   6.34569686719358     -2.39069185072804      0.58681213792123
