20
Coordinates from ORCA-job 20383optt
  Br  0.88527836099009      0.13844612003808      0.90998641590982
  C   2.89286637636676     -0.04135373559171     -0.28853366461918
  C   3.53586493661852     -1.24997006553402     -0.26042174200494
  Br  2.60648803598235     -2.88458520656448     -0.49081315256653
  C   4.91668322763396     -1.26467020930214     -0.05840786701254
  C   5.68983003568064     -0.14190798048294      0.12735836433304
  N   7.02438804642313     -0.52052809944574      0.29893423422691
  C   6.96425765218971     -1.79143887620701      0.20449244313137
  O   7.95560093316032     -2.69600039186068      0.28834855803560
  C   9.23128195566282     -2.21555577234813      0.44752100978546
  N   10.22335639623359     -2.97302271056902      0.52175978111603
  O   5.76331189453746     -2.34839301978236     -0.01105609448195
  C   5.05202021880072      1.11129074036144      0.07876006731418
  N   5.46488128734834      2.36602114000299      0.16082956686915
  C   4.31553000403016      3.05351035284953     -0.02457387566306
  N   3.22572897650174      2.34554894394426     -0.21759782413441
  N   3.68291138421566      1.07072844039120     -0.14753138230138
  H   9.29073015753287     -1.13318894671260      0.50023076729810
  H   9.94066209636507     -3.95106192306758      0.44869359690751
  H   4.27732802372597      4.13213119988090     -0.01997920214321
