23
Coordinates from ORCA-job 20381optt
  Br  5.70017671546495      1.40848336549458      2.55829196608125
  C   6.20252576547383      1.71930093762112      0.77216314736275
  C   5.47583185194798      1.43371556399240     -0.31179417843855
  Br  3.72137360775979      0.75655793723561     -0.23502663962154
  C   6.12637729473482      1.72610386622174     -1.58721523864312
  C   5.55808678941349      2.32747880417869     -2.64773611205994
  N   6.37408603958558      2.98958123106714     -3.58381601888829
  C   7.55388196655481      3.55646496556086     -3.01951295099163
  O   7.48315238389427      4.28251790028824     -2.03784566318735
  C   8.80629722594481      3.17481042908664     -3.67872305896286
  N   8.73726583579752      2.86565676979630     -4.97461067830123
  C   9.98711706595381      3.06949241208065     -2.87182750199097
  C   10.22047627727328      2.82696360853187     -1.54646781348428
  N   9.34051268250697      2.57171866791099     -0.47570531072259
  C   8.08281307557356      2.11722216223677     -0.53857083491067
  O   7.42474200066756      2.29836180404937      0.68553654095145
  N   7.52452561949281      1.57918746169677     -1.54874474505290
  H   4.48031371693192      2.39428243760433     -2.74173656912321
  H   6.59433120280639      2.50187954738249     -4.44757890292985
  H   9.64656619177996      2.53722904030526     -5.29342388082777
  H   10.91074808359491      3.07122093621363     -3.44953754048141
  H   11.24925247040783      2.79076976443273     -1.21421408973201
  H   9.66954613643901      2.79500038701177      0.44909607395472
