19
Coordinates from ORCA-job 20386optt
  Br  1.18239937981322     -0.23004348382689     -0.20822694003153
  C   3.02389513257061      0.10722600223794      0.02296185197948
  C   3.64577000290767      1.25667964721824     -0.28185295298925
  Br  2.67909517564217      2.71139091530658     -0.99908523364608
  C   5.07952799369265      1.31259407934903     -0.12212773032660
  C   5.72979683530458      0.07228186870828      0.08384572197601
  N   7.14411733533250      0.00008452386002      0.00923952836093
  C   7.78886680020488     -1.07530397666127     -0.60454237413135
  O   7.22623510650905     -1.95330867936356     -1.19695770001485
  C   7.92129696728311      1.13058639098020      0.28574296418404
  O   9.12893220190908      1.09879281302776      0.40702427868423
  N   7.20119857751727      2.28472720933553      0.36481096845874
  C   5.83588236322066      2.51324930476652      0.02252581768691
  O   5.47709840929979      3.68027067803315     -0.06079832967082
  C   5.05283280025864     -1.06786553060880      0.58203857057404
  O   5.50114141090345     -2.07921132904643      1.05780482649272
  O   3.64045732570133     -0.96775743664709      0.54488163065281
  H   8.87549893829502     -1.00037812437595     -0.49431780795183
  H   7.74495724363422      3.12298512770672      0.50503290971240
