20
Coordinates from ORCA-job 20391optt
  Br  3.29799218970044     -1.26985820102342     -1.37848961245568
  C   4.50647190063300     -0.40817188584806     -0.21230254829024
  C   5.79688434019735     -0.12898895477575     -0.55071514510686
  Br  6.46294181183099     -0.60939497047196     -2.26820078163095
  C   6.70620148625507      0.48134214100583      0.36800057427471
  C   6.25703510263496      0.81630336308418      1.63973800246711
  N   7.16184583327417      1.43441187333959      2.53534133140768
  C   6.77359397681088      2.45533079678583      3.36323026004046
  O   7.42570165087783      2.87665138829319      4.28598607555638
  N   8.26781369089334      0.66256697899865      2.95276512667702
  C   9.09280041739408      0.40529217489390      2.02080363941937
  N   9.12033134277454      0.82774372902021      0.70088481509968
  C   8.06406553313895      0.82186943009429     -0.02551373669013
  C   4.90755445096521      0.56177806143302      2.08853893653501
  O   4.51701248781480      0.84345389060591      3.22362941686538
  C   3.95702919260008     -0.06108788230831      1.09717150578543
  O   2.79129422044054     -0.26471767216549      1.39746713588573
  H   5.81685113665007      2.88469654479112      3.04338871877618
  H   9.95082615347643     -0.19419256859379      2.31205247033658
  H   8.21075308163721      1.09597176284106     -1.06777618495287
