21
Coordinates from ORCA-job 20396optt
  Br  2.25341558492680      1.64478634202328     -0.62860644222449
  C   3.82690607148389      0.62596996315084     -0.44709909426405
  C   5.07886297979012      1.10079571544025     -0.35988153147008
  Br  5.34894314278048      2.97009144037778     -0.48650333728493
  C   6.18102004947207      0.17321839223253     -0.21998170118260
  C   5.85816898811261     -1.18975787790090      0.03359490437066
  N   6.65587228538111     -2.20523379580422      0.41015296300663
  C   7.79885415628498     -2.28192196354794      0.98516674209944
  S   8.77090437332695     -0.99907070236010      1.78901013346327
  C   9.98296637656241     -0.70605586077105      0.54047241483663
  C   9.61598061581130     -0.45378342872588     -0.71067474128482
  O   8.30182781282260     -0.40571722620851     -1.06653474810843
  C   7.53925954854214      0.60660607017167     -0.45710278063415
  O   8.04428238241417      1.67945155325148     -0.24995060981317
  C   4.47041311145943     -1.65051528476380     -0.16676653298951
  N   4.02277950580435     -2.83160577513438     -0.11953803665488
  O   3.51955256318103     -0.68758495392295     -0.43666031999545
  H   8.23077034212367     -3.26987173057427      1.11140340017372
  H   11.02810612433084     -0.73533992803873      0.81619057056626
  H   10.32309535337948     -0.31174229659918     -1.51946700809738
  H   4.81401863200947     -3.43771865229591      0.08677575548734
