22
Coordinates from ORCA-job 20398optt
  Br  1.25662626662701     -0.31292478512629     -0.50706324374452
  C   3.16222782992631     -0.15892763836858     -0.22697018844289
  C   3.71194242296741      1.09814584457446      0.00546539415461
  Br  2.74369795481290      2.70956645402186      0.15816050787085
  C   5.13091802930283      1.14320912071148      0.16898765463957
  C   5.83594445486420     -0.07150836012413      0.12343664030387
  N   7.13554281300383      0.25765033649865      0.29945036447116
  N   7.33685433554559      1.59246870558960      0.44353613137059
  C   6.11853288506454      2.12225046296266      0.36794483546784
  C   5.17089986816492     -1.29341875973777     -0.09608089895801
  N   3.80828220109951     -1.28799172312249     -0.28881315738511
  C   5.82185338482099     -2.59076580235463     -0.06360829172587
  O   7.17430623436649     -2.53268536762987     -0.47205374694653
  C   7.84084139828018     -3.61545604616893      0.12453364114531
  C   7.05353016021542     -3.88226933889371      1.39634123291533
  O   7.38725822070318     -4.59217552404859      2.30470814937683
  O   5.92959194942179     -3.19496408491934      1.31709594267552
  H   7.91507033095584     -0.37131792939751      0.24926490460950
  H   5.98579342807272      3.18858775491007      0.45948962987888
  H   5.25367729429669     -3.33857740056838     -0.62434893257783
  H   8.87320920848319     -3.35335859805270      0.35016559227031
  H   7.82339932900439     -4.51153732075583     -0.50764216136940
