22
Coordinates from ORCA-job 20393optt
  Br  1.22074091443677     -0.55754471581063      0.70594077753334
  C   2.97897545766754     -0.10861249517138      0.18946964398063
  C   3.54289786466653      1.12709712581344      0.29252009329084
  Br  2.47659465229028      2.65940323168896      0.64644360232008
  C   4.92053797596465      1.27274266365792      0.09486667482378
  C   5.65866044846668      0.09967445636181     -0.11582594851688
  N   7.05670643812274      0.21295156201880     -0.23241783024596
  C   7.76451183640387      1.31527920907173      0.10002974057576
  O   8.97295903171199      1.37441454940362      0.13993087722936
  O   7.02201592479791      2.41330252916652      0.40816620578990
  C   5.68262268798078      2.53380077760672     -0.11590901934154
  C   5.77433898973249      2.90846211469249     -1.61098084992365
  C   6.64322790785460      4.11257772422049     -1.83314455781229
  O   6.23796830238306      5.17142975359404     -2.24139714793587
  C   5.09925323597126     -1.17275736391257     -0.24488492623990
  O   5.67808098329819     -2.22883918861311     -0.44295131189274
  O   3.68881015725748     -1.21704416679752     -0.16528341164379
  H   7.57362706964920     -0.63652147233969     -0.40397500083471
  H   5.24310967072264      3.36337664422849      0.43552591283921
  H   4.77138669049415      3.10354798681282     -1.99064591795300
  H   6.20327636969938      2.05061835565790     -2.13923503258527
  H   7.70969739042766      3.98464071864912     -1.57324257345729
