22
Coordinates from ORCA-job 20395optt
  Br  1.17830645693774     -0.31410192248982      0.75853608152706
  C   3.08570862654099     -0.18521444265879      0.48833865464296
  C   3.63622520226032      1.06572536381367      0.11779119638544
  Br  2.66202055746114      2.65553605809084     -0.14612298557332
  C   5.02610656665455      1.05992909558382     -0.09017281104696
  C   5.78624546302845     -0.10524766050016      0.09029531917691
  N   7.12080835347628      0.03800779937674     -0.14115298229306
  C   7.41473766012583      1.25958485653477     -0.48853877545506
  S   6.06198147408880      2.34261544413219     -0.56087742246379
  C   5.11262304306860     -1.29579173352870      0.50797609385227
  N   3.75050483997675     -1.26779654640327      0.67022238422784
  C   5.81263925691503     -2.57261022131806      0.68342007946214
  C   5.30127373865404     -3.43883088549778      1.82484515429967
  O   5.47926549707281     -4.77942534130919      1.36100067704770
  C   5.56777827956679     -4.75835541702571      0.00341317521753
  N   5.58492847722114     -5.78410728750336     -0.73218907347938
  O   5.64160858513018     -3.51513310452826     -0.45514740959821
  H   8.40959182477806      1.60193919339579     -0.72812979130107
  H   6.88671539516718     -2.39539491719085      0.74994094328259
  H   4.24323941825181     -3.24961005527010      2.00407714388370
  H   5.87708668721967     -3.30908973145623      2.73850035243111
  H   5.47060459640375     -6.60562854424756     -0.14602600422608
