21
Coordinates from ORCA-job 20405optt
  Br  1.20978770689247      0.48792922250615      1.63195960486291
  C   2.81489853777992      0.09117733292765      0.07102639111766
  C   3.40376418861382     -1.14495117136199      0.05197312397237
  Br  2.25405858979285     -2.65773095439097      0.03186919038715
  C   4.81063063799435     -1.32292981035475      0.00319086833007
  C   5.63858872905227     -0.21519623622203     -0.01148711906402
  N   7.02180317561202     -0.24882888700206     -0.01145251255654
  N   7.77693029377081     -1.31734684153923      0.18071242225460
  C   7.24713875125555     -2.47966242672471      0.15402277848913
  S   5.57341672841083     -2.89645738870699     -0.18931451529598
  O   5.47532612208778     -3.29659379756361     -1.56933362111650
  O   5.18088192957443     -3.84598762820281      0.81627974453780
  C   5.04599030202199      1.07380928812800     -0.04398456552692
  C   5.53116480257293      2.37096498972046     -0.15607180255998
  C   4.37136870361804      3.15308393181766     -0.21216505754274
  N   3.26090305362218      2.43505775053941     -0.13937472702431
  N   3.67440692461768      1.16354963484063     -0.03037586500927
  H   7.50658438687471      0.62122541311161      0.12497444058441
  H   7.87681678359496     -3.34113952822661      0.33994944394076
  H   6.55415348712226      2.70104309438491     -0.22036473481543
  H   4.29738616511801      4.22498401231928     -0.31003348796517
