26
Coordinates from ORCA-job 20407optt
  Br  1.05601276843768      0.12397756197944     -0.43027538638860
  C   2.93512516560196      0.04966221527907     -0.11858778863172
  C   3.59752558089424     -1.20521679038090     -0.04409988742909
  Br  2.71693789818466     -2.87133016234563      0.17556273758820
  C   4.97642337553267     -1.16302495795405      0.09951467008686
  C   5.71405547481664      0.04399620324209      0.12323538607691
  N   7.01508152486162     -0.24819466627703      0.30894057173920
  N   7.18074302857028     -1.55332606480616      0.39971712952672
  N   5.92401011293387     -2.10517775327885      0.26710038996398
  C   5.04051235987999      1.29423998429520     -0.00643213973026
  C   3.64774172893834      1.23821953366676     -0.11897824535324
  C   5.80642873273901      2.57285581115722      0.12351692160332
  C   7.10798417775764      2.62125803131676     -0.69846754853577
  N   7.34293361722936      4.05789861025282     -0.79678576256189
  C   6.20028494643025      4.80451853978574     -0.69108038681290
  N   6.03836474729679      6.06026610481384     -0.85659500765350
  C   5.08695039813360      3.84487611418508     -0.33775775989345
  H   5.79415999706267     -3.09728132934330      0.35211596923638
  H   3.08677163566902      2.15851710217750     -0.22452612564342
  H   6.11046293901103      2.71898212780983      1.17083645407258
  H   6.94897206356362      2.16246272002650     -1.68097497021085
  H   7.92625359725588      2.10566752288549     -0.20378229373536
  H   8.16020302142805      4.43681373705014     -1.24481305118411
  H   6.91705270918281      6.50744107664941     -1.11790996760639
  H   4.52087327282783      3.64425101124712     -1.25298018919887
  H   4.40613512576034      4.27964771656589      0.39050628067526
