20
Coordinates from ORCA-job 20406optt
  Br  1.03696263415902      0.28666499104871     -0.24268239868192
  C   2.94159931268148      0.11135224061197     -0.16370862265227
  C   3.57384641645681     -1.09942577732754     -0.09730933612328
  Br  2.61684008357905     -2.73779464520581      1.34645466828224
  C   4.98643618517449     -1.07975125798789     -0.10944512845811
  C   5.74170246987060      0.10218966656983     -0.15593620548201
  N   7.02456757720253     -0.31794032169978     -0.16947587048187
  N   7.07507699970952     -1.67154089159777     -0.13595398480730
  N   5.88749881051940     -2.12815207898041     -0.10182126043924
  C   5.08406572852256      1.33287873336116     -0.19223497783193
  C   3.70212164155610      1.28150918799759     -0.20421074640466
  O   3.26449145716796      2.59194862663957     -0.26693444301009
  C   4.39697277307148      3.30202496132664     -0.27999114375695
  O   4.19275874055759      4.63134482153065     -0.33656912091213
  C   5.28816135675111      5.43778337070620     -0.16463369653803
  N   5.23276881129730      6.68102540818672     -0.28648876497512
  N   5.50563171828650      2.66636445902047     -0.24420536678027
  H   7.87638276178685      0.21254396443265     -0.20347892314230
  H   6.19429481201982      4.89797610177047      0.08990347538296
  H   4.28981970962969      6.98099843959650     -0.53627815318771
