20
Coordinates from ORCA-job 20402optt
  Br  0.94476091615532     -0.03917081275115      0.14742459952505
  C   2.82991251231425     -0.05737824283430      0.00859796716982
  C   3.53972447261054     -1.21658791883916     -0.21117888664925
  Br  2.61925636302650     -2.84201395972482     -0.53270989193885
  C   4.95365548993609     -1.17348107325541     -0.26290414494583
  C   5.62061593506130      0.03525622774846     -0.22875512548901
  N   7.02758566297047      0.11352943303211     -0.40167808411732
  N   7.81555884905243     -1.03341450235661     -0.11964156408156
  C   7.16747993593012     -2.11783854729364     -0.17490287627728
  N   7.63070814099776     -3.40560654399189     -0.03875373138002
  N   6.56552359278297     -4.26147329729754      0.09768811575816
  N   5.51237039203416     -3.61807621085175     -0.09680041372689
  N   5.81058823579149     -2.32234086491812     -0.37235303264531
  C   4.92465297222487      1.28839279336930     -0.10804867020709
  N   5.48708400048077      2.46625801728275     -0.19635553290281
  C   3.45559461321429      1.24507906291592      0.14856159806121
  O   2.81850203916128      2.26217200195750      0.41232793193323
  H   7.40740324317009      0.86552441448850      0.15853175036414
  H   8.50766811473012     -3.65796154830264      0.38067183634907
  H   6.46435451835507      2.38113157162248     -0.46872184479944
