20
Coordinates from ORCA-job 20416optt
  Br  1.07934639895055     -0.16362457112328      1.10625036052477
  C   2.95375710864464     -0.02103261054603     -0.23917278329848
  C   3.67864346107693      1.13921787838172     -0.23439851680916
  Br  2.73245365534785      2.78362392599600     -0.45541346695753
  C   5.09084655332478      1.20772347664502     -0.10382306194230
  C   5.79714266014319      0.04075690835901      0.01672504007986
  N   7.20278458535879     -0.02326614971198      0.17552760000691
  S   8.04049100862606      1.27323150623067     -0.36733482177813
  O   7.90276301277857      1.44769637963142     -1.77690859384307
  O   9.33237545882524      1.25978672394560      0.21833323420653
  O   7.18509380675072      2.37754314389927      0.34872565689354
  C   5.82327173190320      2.52240352356584     -0.12645961437914
  C   5.08542162735619     -1.17099028445486     -0.01253983018274
  N   5.49302022814267     -2.42939281298663      0.02183558882533
  N   4.37205356381822     -3.15684840167016     -0.08578257274636
  N   3.31943521531290     -2.43431844779339     -0.18649534215470
  N   3.73437642210406     -1.14709144569673     -0.14100008195172
  H   7.61493436878655     -0.92702065140527     -0.03029760094224
  H   5.84266533336647      2.94666415791632     -1.13223521339395
  H   5.37012379938227      3.23793775081747      0.55446401984258
