19
Coordinates from ORCA-job 20415optt
  Br  0.89767143869825      0.07196106753263     -0.36236416062944
  C   2.77099092588675      0.09199919630475     -0.12470203767738
  C   3.49321922752008      1.23692673056131     -0.18519658509860
  Br  2.61618888528190      2.89344908579013     -0.44576352423050
  C   4.92219940257618      1.24674398653718     -0.06756561618738
  C   5.72586456081679      2.37804288575194      0.11869185502877
  N   6.99516757311416      2.36648627126059      0.51399956152042
  N   7.71076104982774      1.26679588034706      0.63028320363746
  S   7.26016465883328     -0.06276148869554     -0.19477702882394
  O   7.52165874411930      0.09721028870510     -1.60478955408132
  O   7.79730536618683     -1.22846928175196      0.45295165003073
  C   5.50833324878758     -0.05537086852708     -0.03306118905859
  C   4.79943035527688     -1.19278561113126      0.05253823183844
  N   3.39218416521199     -1.15668887551570      0.08788191495299
  C   2.73190779838588     -2.34560809165643      0.32528819959113
  O   3.31030320436404     -3.39631311814122      0.50024870667185
  H   5.28410705214535      3.36312658833627      0.07350727141497
  H   5.23025144019320     -2.17990841256388      0.10448085517533
  H   1.64529090277376     -2.25283623314389      0.33734824592507
