23
Coordinates from ORCA-job 20411optt
  Br  1.35007665100351      0.61423573820927     -1.18287265818152
  C   3.13857739260047      0.17634139363388     -0.65107778662087
  C   3.48969692792171     -1.16752962587613     -0.40017758527971
  Br  2.35534238328306     -2.66100820009511     -0.60287724625222
  C   4.80438526043206     -1.35636490159575      0.01440793015832
  C   5.71865132370641     -0.28979673081478      0.17219348545629
  N   6.89459069940665     -0.78249686145147      0.60115998007499
  N   6.81342697197268     -2.09801583987907      0.73550134943924
  N   5.51978336599014     -2.43201283304856      0.36550498565825
  C   5.22665874035963      1.01396668168911     -0.12388046492447
  N   3.95836635807117      1.17719566513044     -0.52360286349576
  N   6.00542514560447      2.19010906721740     -0.01572361459381
  C   5.30981758032364      3.44157544078657     -0.06519058355578
  C   5.19276663548193      4.06536811596305     -1.43599932976222
  O   5.72603272436971      3.67191293263661     -2.43089092013851
  C   7.37758909767182      2.17118804913565      0.07208314231351
  N   8.18289484135888      3.16584115538171      0.04933349208373
  H   5.21425139014485     -3.38821247764909      0.39531081723777
  H   5.80234116073742      4.17347051064881      0.58673048403964
  H   4.29414015739003      3.30643369676636      0.30934223053030
  H   4.55616061568811      4.97628195623147     -1.45545765868704
  H   7.77843009386376      1.17075026592113      0.19887746930371
  H   7.70759448261779      4.04876680105850     -0.12469465480384
