22
Coordinates from ORCA-job 20421optt
  Br  1.00422279736298     -0.20757720532401      0.20836318516886
  C   2.87209849696281     -0.00929879336967      0.13081529136661
  C   3.49298367638444      1.25309146198192      0.11586732527050
  Br  2.50291089420533      2.85606373092893      0.32627751027012
  C   4.88427860059686      1.34809316779291     -0.00114525426843
  C   5.63284465863703      0.17894198417014     -0.08738943345007
  O   5.01540368126580     -1.04778785879426     -0.04632925703334
  C   3.63851905614721     -1.20571032943544      0.02742274092045
  N   3.16849496428718     -2.39658529545699      0.00216628872241
  C   7.05905837273222      0.13208609018309     -0.19725295346502
  N   7.81887697845576     -0.91750603476414     -0.26482848805023
  C   7.64163938376606      1.46377397598052     -0.21602985256495
  C   6.90725965966463      2.62000919530446     -0.13082936113408
  N   5.54347653566918      2.56624515413193     -0.02893166025729
  C   7.71311678602231      3.79546914133597     -0.15699601578596
  C   9.03515587572401      3.48717584856031     -0.26187434880262
  S   9.32114277001344      1.79755549751265     -0.33023646953024
  H   3.94267545486995     -3.05107884134198     -0.07746269268088
  H   7.23928014417015     -1.75313650141792     -0.23188170155023
  H   4.99545581921409      3.40592587262975      0.04656679604980
  H   7.32402295907639      4.80254218488071     -0.10049809881449
  H   9.86208243477212      4.17770755451112     -0.30279355038091
