23
Coordinates from ORCA-job 20420optt
  Br  0.86118090588254     -0.25978609036193     -0.14542049274040
  C   2.72004045968786     -0.10410510451680      0.08188340546483
  C   3.61300309579252     -1.13303910456980     -0.18591344510031
  Br  2.96613345101836     -2.80282573072279     -0.81770323134023
  C   4.99754734274680     -0.99282389745461     -0.00354539322301
  C   5.44799613226990      0.27124194457088      0.49358419950456
  O   4.55134687442012      1.28099408365675      0.73695301121038
  C   3.19243838460312      1.16549632207903      0.55787678860309
  N   2.45458581712756      2.17353668817410      0.82133112268662
  C   6.76153956400601      0.53546097525426      0.75369157556274
  C   7.71838402471092     -0.47620660498884      0.51682389065293
  C   9.12574932087908     -0.52208665651546      0.76203706104149
  O   9.89136922821198      0.32737954021463      1.20639774078676
  C   9.57728088010443     -1.93645256053152      0.36349616564803
  N   8.40239385485098     -2.54848223776244     -0.25227076082312
  C   7.30023803106767     -1.71142646843427     -0.01498527007081
  C   5.98154567815083     -1.99009688494503     -0.26698200249833
  H   3.04615018352459      2.93697461908292      1.14114325299365
  H   7.05357604753065      1.50052893716708      1.14567220780479
  H   9.90181804924199     -2.46832997537758      1.26428214090087
  H   10.42326641137664     -1.88217817268737     -0.32472187748590
  H   8.24628638840911     -3.52326794082322     -0.04784165720442
  H   5.68112987438626     -2.94450568050798     -0.67478843237421
