22
Coordinates from ORCA-job 20425optt
  Br  3.36037923589141      0.62325604356475     -2.37591690563800
  C   4.42529721534120      0.02411124934310     -0.92595712805124
  C   5.64741228446789      0.64096216674706     -0.62673962254945
  Br  5.87990102123525      2.53405018550903     -0.91144231618151
  C   6.53017129567816      0.01867406455500      0.30816109424571
  C   6.08958538181417     -1.11566774455451      0.89615037034784
  O   4.84304054958048     -1.63480983686632      0.72784416942968
  C   4.00685752988129     -1.18098206759384     -0.30926161485270
  N   2.96591123225228     -1.88063841158741     -0.57248673506063
  O   6.84729596444091     -1.97896611381617      1.68175896610480
  C   7.53341700747732     -2.87292965985566      0.87970186412922
  N   7.13744620954989     -4.00687342086414      0.53037521354191
  N   8.76426740814178     -2.30817113645474      0.47172106634324
  C   8.76066984602973     -1.78967995164629     -0.83707790688075
  N   8.90191959892938     -0.56414824537268     -1.11679913192282
  C   8.80811732659970      0.36588496031444     -0.07549814335034
  N   7.77709825932506      0.63690188763527      0.61006931108045
  H   2.94510007833279     -2.68798174711144      0.04459515935061
  H   6.18604323143161     -4.14730867488543      0.86696157605817
  H   8.98169005025248     -1.56735369169776      1.12957698639749
  H   8.64265042783743     -2.53433803615977     -1.61858397637280
  H   9.71472884550956      0.93800818079754      0.11884770383112
