19
Coordinates from ORCA-job 20433opt
  Br  1.10363276529406      0.09339611231116      0.84823749151195
  C   2.90277982856814      0.03495282639633      0.32698784141352
  C   3.59643189484221     -1.10502836354174      0.05999091929843
  Br  2.72968980622359     -2.77329288503974      0.17841735186112
  C   4.97209256224799     -1.08240992351651     -0.34400905227349
  C   5.56463167931902      0.14675451733279     -0.36754214656190
  O   4.88734399940338      1.27535300051343     -0.07127572856853
  C   3.54569155793530      1.33021219379530      0.21662630620445
  O   3.04095639857905      2.40736492220086      0.36455541290930
  S   7.20191121996916      0.51854143718219     -0.81206975130261
  C   8.00850988832840     -0.96226565242781     -0.36564025897312
  C   9.30905502520107     -1.14806676159975      0.06534116783549
  C   9.45647344291291     -2.57639939450984      0.25160770314647
  N   10.51456112007508     -3.25962453517157      0.63859458926846
  N   8.24868429640796     -3.20901490145818     -0.03715916254747
  C   7.42821480947369     -2.24843484882351     -0.40154308917177
  S   5.77027199182863     -2.56148782108645     -0.89638624920546
  H   10.06594466361286     -0.39867077396676      0.24164003148658
  H   11.27112304977707     -2.59587914859015      0.80362662366858
