24
Coordinates from ORCA-job 20439optt
  Br  1.75635333563732     -0.12883629475227      2.53524156384227
  C   2.92136311253441     -0.05751681840682      0.49638401567062
  C   3.64898383463197     -1.16067070041985      0.14301169839352
  Br  2.87276380432029     -2.89229589968818      0.29064868303315
  C   4.97452552507694     -1.06965549469902     -0.31655050195786
  C   5.58651012885828      0.15918865322983     -0.43905335531680
  O   6.88543151025404      0.12723241067244     -0.91334521792822
  C   7.23274136101425     -1.22868842522257     -0.65526873025870
  C   8.27109093502485     -2.02548274613861     -1.40047831957216
  C   7.74304571587445     -3.47217611860687     -1.07099017601899
  N   6.34389869940073     -3.37761149318244     -0.55395808812284
  C   5.96889847096325     -2.02297775584611     -0.92464345346188
  C   4.86612754809074      1.32123174441495     -0.12814974782792
  N   5.10779920078464      2.62406813700154     -0.18295160064018
  N   3.97042171197890      3.20489037257000      0.21668026166140
  N   3.05124027617275      2.36288507102977      0.51112974802236
  N   3.57761969884986      1.13312922627921      0.30729763594887
  H   7.43062159963838     -1.30890765721236      0.42406108638337
  H   9.29331535126527     -1.87064514735211     -1.05995209549918
  H   8.21970429730990     -1.82611625804782     -2.47123513766052
  H   8.37342808152478     -3.96947792417148     -0.33445605011413
  H   7.74850906674661     -4.08360610517868     -1.97398243571535
  H   6.33252504995694     -3.46704989104865      0.45612774405348
  H   5.78308168409030     -2.02891088522385     -2.00956752691430
