26
Coordinates from ORCA-job 20438optt
  Br  0.66857458531431      0.12949398393317      0.37546875689927
  C   2.75654929979872      0.13768935734609     -0.69770346566948
  C   3.59884864813699      1.16868534991443     -0.41761014489488
  Br  2.98444295777901      2.96388480086120     -0.42918433162590
  C   4.94850607116061      0.88000044541660     -0.10522490539642
  C   5.36683145268158     -0.39800626183965     -0.06045246546791
  O   6.68188548181916     -0.57500912915299      0.28852831470503
  C   7.26334358546767      0.73171534253177      0.43090571120657
  C   7.78945016943818      0.92907030517429      1.84499154522830
  C   6.55838986819609      1.39206720353088      2.62082785201845
  C   5.93287478662889      2.41503264383323      1.67145636242379
  C   6.09426824905125      1.77628241950856      0.26832648250278
  C   6.42957309751291      2.80017055618063     -0.79557445096951
  O   7.36193707137316      3.55373512466878     -0.69674727064442
  C   4.50796002674816     -1.50950266006931     -0.35644281902129
  N   4.77625904606928     -2.75245387669918     -0.35820864188327
  O   3.23562544390161     -1.12390817447217     -0.70697754955689
  H   8.03424267926706      0.83702942934826     -0.33364394481918
  H   8.53573903046551      1.72804838764287      1.82665780130386
  H   8.25320559962867      0.01873961692832      2.22379753329073
  H   6.79590477252213      1.81412744232085      3.59737298650105
  H   5.87332265838075      0.55420402276797      2.76949760972946
  H   6.49962831324629      3.34835838763299      1.69951313862797
  H   4.88706238152761      2.63203189425247      1.88300218631667
  H   5.79042310160975      2.80239925542176     -1.69606527465457
  H   5.75215162227431     -2.86888586698188     -0.09751101615023
