21
Coordinates from ORCA-job 20444optt
  Br  1.23957277980892     -0.08105068206602     -0.61857897886238
  C   3.08117316866922     -0.01566769304153     -0.18707962686276
  C   3.75160427136449      1.20025364841527     -0.08438137370900
  Br  2.84273747036053      2.85586243953781     -0.20934517066827
  C   5.14478036985799      1.24950445719991      0.17705934903364
  C   5.88528603979951      2.38045764714784      0.39161445213165
  O   7.26225147983272      2.41106068958063      0.63409250285987
  C   7.85555685937955      1.23725820097693      0.31154648624430
  C   7.16316038450535      0.08125243029862      0.14067111520790
  N   8.08533076064354     -0.82231290845715     -0.31903963631922
  C   9.27964589769671     -0.16795032448829     -0.35894373562148
  N   9.16737215853164      1.08794628877739      0.00935027991951
  N   5.77851227057950     -0.02643436494731      0.20301809686876
  C   5.13852900514078     -1.25199154185854      0.39430002579145
  N   5.74244437985595     -2.31607795659310      0.78105021464594
  C   3.68123701292990     -1.28914672974992      0.03777120504680
  O   3.09444833537013     -2.37772897102825     -0.02515347669377
  H   5.45610354809804      3.36427603756840      0.35868933476386
  H   7.89075419596085     -1.77920810482337     -0.56602586414106
  H   10.19480517765755     -0.66419441457424     -0.63449775441663
  H   6.68169443395702     -2.10110814787508      1.10688255478090
