23
Coordinates from ORCA-job 20440optt
  Br  1.05346239710794      0.02462384885205     -0.53573056342296
  C   2.97004303832837      0.08511905026085     -0.32653739368900
  C   3.60986897466198      1.30720015550612     -0.28426197331976
  Br  2.58689957292198      3.07757907098855      0.99143448069312
  C   4.98523940097457      1.20812746738167     -0.18557166259344
  C   5.65225809801061     -0.01320008563527     -0.10041116558379
  O   7.02520862111118      0.15716526720134     -0.01032467976363
  C   7.20774957445323      1.49615348803958     -0.04704437866165
  C   8.22219069006723      2.42217101978373     -0.03123484333564
  C   7.50192314718371      3.63783687133645     -0.14289105362484
  N   6.18692445445008      3.47835106321379     -0.21949325597969
  N   6.03272565234102      2.14978976766026     -0.15124553947830
  C   4.99554580328338     -1.22709941542604     -0.12494467881881
  C   5.73422992561674     -2.53676535555249     -0.01038947418102
  C   6.09836427459206     -2.87067227134613      1.36906077705582
  C   6.38571703586849     -3.13021564823301      2.50302917742481
  C   3.61126246521104     -1.14917180026022     -0.25558517389162
  H   9.28189023873109      2.26575720926965      0.04681213191655
  H   7.90930277576680      4.63638791132321     -0.17126244514907
  H   6.64696614959785     -2.50590575101736     -0.61094183203734
  H   5.10877653035601     -3.33633236245954     -0.41235005793806
  H   6.63266322644091     -3.34328558236677      3.51448094520348
  H   3.02978795292357     -2.06261391852042     -0.29959734082514
