21
Coordinates from ORCA-job 20445optt
  Br  1.32213876180857      0.05163815401838     -1.20432259208533
  C   2.93872373857095     -0.13570099980425      0.15962901295245
  C   3.66023374664131     -1.31340973450015      0.12137010126934
  Br  2.76851438855983     -2.98027212549932      0.20309392759730
  C   5.05582988799522     -1.26469947570316      0.10829249933713
  C   5.69518467752554     -0.04458251538450      0.05596317432637
  O   7.09487541391907      0.12520980285066     -0.02613777831198
  C   7.69041839738703     -1.07842968142367      0.02984345683963
  C   7.08218938018011     -2.25195338104106      0.12961750814400
  N   8.01370845112518     -3.26358702031861     -0.14804940882415
  C   9.27129036759081     -2.66415638920914     -0.25272724545687
  N   10.44102905896629     -3.17760057361255     -0.27295154656008
  N   9.02968892478221     -1.29912564520144     -0.29512457666711
  O   5.74242817282336     -2.46813050325447      0.16619457089045
  C   4.95876954057134      1.18051838925779      0.09119516468941
  N   5.40865498970955      2.37166136001542      0.05458449317265
  O   3.59657492095522      1.04207353783667      0.22792698800565
  H   7.94250821121947     -4.17791659109744      0.26838667947916
  H   10.39605830904831     -4.19041389432843     -0.24455625176515
  H   9.77905400783774     -0.66327061698568     -0.07748928108477
  H   6.42112665278270      2.33714790338496     -0.01773889594810
