21
Coordinates from ORCA-job 20449optt
  Br  1.05335487563077      0.41448237171101      0.24675203566071
  C   2.95534726577674      0.15908940939454      0.25790497191897
  C   3.46620510295498     -1.09869056602169      0.52297201508297
  Br  2.48587761849318     -2.67438862546912      0.81382996472639
  C   4.87569834954019     -1.23779923502376      0.39522505429054
  C   5.74060239365043     -2.26402117414715      0.36483036194492
  O   6.99924516507132     -1.78151318845929      0.05631730446897
  C   6.91867296809812     -0.44935766130003     -0.13715829891797
  N   7.95182044149210      0.17589598457546     -0.56669336422314
  C   8.07871123126813      1.53189631683880     -0.54568720194716
  N   9.06779871401169      2.08485455705188     -1.14417220625711
  N   7.17854944844037      2.28778031547728      0.26294855898558
  C   5.77402569606271      2.39653679744520      0.04879478483836
  N   5.19148471527455      3.54550545366053     -0.02441153990399
  C   4.99989054362072      1.18821551722315      0.03170330994190
  N   3.66552173478103      1.23403981054333      0.03085324334906
  N   5.63335931116295     -0.07759111617626      0.12930624387777
  H   5.62153947322911     -3.32176287511497      0.48838789878743
  H   9.01803537695751      3.09526906009245     -1.04995965534902
  H   7.55449676036637      3.21344847715808      0.40889441838924
  H   5.88276281411695      4.29211037054056     -0.00563789966440
