24
Coordinates from ORCA-job 20447optt
  Br  1.39886055003710      0.34415258542481     -1.35195822594074
  C   3.05597042692496     -0.04020841979259     -0.46660120112271
  C   4.02770852252010      0.92899692350767     -0.31530825797463
  Br  4.34263246234839      3.40665169595287     -1.05252323011742
  C   5.17053068470390      0.53302729595194      0.32721507694868
  C   5.26501434921484     -0.77946315162120      0.77560257952745
  O   6.45418429363927     -1.03702182155758      1.41404754289518
  C   7.25141101252095      0.12498238068443      1.35631281965344
  C   7.56185751303451      0.66618850908981      2.75348319133997
  O   6.51712862783992      1.57157920658095      3.01037888650188
  C   6.29190553739882      2.29283389708415      1.80253691510861
  C   6.43212755122072      1.25417958427824      0.68385011541500
  O   8.40566751173520     -0.16863985543647      0.56147165653746
  C   9.34185911067140     -0.96848070829433      1.06920767310727
  O   9.37492858713143     -1.42440565147644      2.17249931898213
  N   4.36106211918155     -1.71462287249109      0.64840094448660
  C   3.24386040771491     -1.32726248682942      0.01449141845932
  H   8.53487748180128      1.17664834773046      2.73710711340442
  H   7.56413670662417     -0.11294412675630      3.50865005878787
  H   7.04449725173383      3.08199465560800      1.69113378019824
  H   5.30254471044704      2.74071263693632      1.83054849075356
  H   6.93050080830240      1.66321180068356     -0.19250379763734
  H   10.11289077538646     -1.14170073405788      0.30731440865385
  H   2.47184299786659     -2.07840969119995     -0.11135727796812
