26
Coordinates from ORCA-job 20455optt
  Br  1.19424127162670     -0.26948013091444      0.66837334883462
  C   3.01926739051339     -0.20093581891668      0.05368756032245
  C   3.83124721555478     -1.30214541377661      0.27474038466561
  Br  3.12892975047608     -3.12581826772743     -0.09874098769823
  C   5.25759522346003     -1.24274003513364      0.17043659999995
  C   5.91005502338232     -0.20050179246548     -0.36518859435761
  O   7.27912781592657     -0.07355988555010     -0.39756518487226
  C   7.96353551690518     -1.04934043354104      0.35696554691209
  C   7.29087694585314     -2.40413131687684      0.24890415679342
  C   7.92964459055290     -3.54444703852973      1.02718387822574
  C   7.34979333405485     -4.76778841611726      0.30028043278050
  C   6.95237938038438     -4.20886302985410     -1.08442009066824
  O   7.33660593629201     -2.83570429908559     -1.08278910491442
  O   5.96745344556786     -2.30773430596538      0.70930692874508
  S   5.09669120610892      1.15052068576313     -1.11359612373751
  C   3.42822009457184      1.07235062239537     -0.40972143829059
  N   2.72183005046370      2.15279597214252     -0.43530785710959
  H   7.98022361927439     -0.76264568284582      1.41450328886829
  H   8.97921175112220     -1.09659682232475     -0.03311528660709
  H   7.67116712444697     -3.50473413539448      2.08292247857874
  H   9.01366650052885     -3.48709333043384      0.91467114462201
  H   6.46728215285520     -5.13274985723291      0.82226349666221
  H   8.07033499899665     -5.58089628035627      0.22519426819408
  H   5.87473610783602     -4.28445219511682     -1.24069440403085
  H   7.47579125171689     -4.68876310494345     -1.91058375667214
  H   3.26609230152758      2.93645431280180     -0.78471068524626
