22
Coordinates from ORCA-job 20459optt
  Br  1.09967789915991     -0.12253114591964     -0.01283906881071
  C   2.95991927226176      0.12573179174418     -0.08203042408440
  C   3.59725553761998      1.30344669049991     -0.13584366261857
  Br  2.63790506543128      2.92295884361536     -0.17492140259134
  C   5.04081857254555      1.32307281322400     -0.15564926883802
  C   5.69486400526124      0.13063066125087     -0.13747854731140
  O   7.03097038524593     -0.02853065421836     -0.12896796522541
  C   7.79625642931333      1.12587979606672     -0.48871033592260
  C   7.25805391915967      2.36158133551028      0.20285068865111
  C   5.81383999289538      2.61620709594246     -0.24978476332702
  C   5.74369700615584      3.14857660852244     -1.68173577823987
  O   6.12353177977803      2.43349900661117     -2.66182573383655
  C   5.24856327052539      4.46967115412823     -1.81847632759401
  N   4.83984220769245      5.55801039352404     -1.89641501432709
  C   4.98917190485071     -1.14439579900265     -0.07325638359241
  O   5.47094620444766     -2.23791841057967     -0.02204220736855
  O   3.60837428673672     -1.04729863389811     -0.05803804459956
  H   7.73578537194513      1.25896540568741     -1.57005498824025
  H   8.81555012365251      0.89246384720987     -0.18509588859872
  H   7.87244033716850      3.22469136141550     -0.05716570925666
  H   7.30067506892922      2.21873586675728      1.28766762842022
  H   5.35086135922367      3.34755197190869      0.41481319731181
