25
Coordinates from ORCA-job 20456optt
  Br  3.12392578528333     -0.37084446191075      2.26427602761227
  C   4.52220025811492     -0.06453739669295      0.94584211059991
  C   4.96673542900153      1.21188816425102      0.69592204930356
  Br  4.12723365017993      2.78031868010571      1.41228149054119
  C   5.97882844513837      1.40827310884620     -0.30410426823692
  C   6.32945009582692      0.23311484044063     -1.01028864414117
  O   7.28492315326419      0.30794111628812     -2.01299318462283
  C   7.11094932360698      1.33195609329470     -2.96657285277258
  C   7.68416722425882      2.67824642098094     -2.52121862811226
  C   6.91575713428734      3.35418350628934     -1.40083808188047
  N   6.88983656300340      2.51299493361633     -0.22465798253186
  C   8.24471591358905      2.20203703204015      0.20272535948932
  C   9.31575451491104      2.04486088147154     -0.87197277537911
  O   10.42429816580238      1.67097327452472     -0.60937251754210
  O   9.04787170726489      2.46774432536599     -2.12518814428684
  C   5.80571182697775     -0.98613071503061     -0.69244109166482
  N   4.94244979646598     -1.16878534287248      0.36002819222602
  H   6.05271408255043      1.44912077885575     -3.22360582533921
  H   7.66264447330195      1.00443059718632     -3.84930730744822
  H   7.74151635318465      3.32995125748885     -3.39758273130329
  H   5.89137738515107      3.56185524615586     -1.71049815293190
  H   7.40896276796329      4.30476455185442     -1.16358214386362
  H   8.24607495720864      1.28754962965307      0.79367178953636
  H   8.63187729617147      3.00218287194983      0.84728621351678
  H   6.07502369749153     -1.86108939415273     -1.27180890076820
