26
Coordinates from ORCA-job 20454optt
  Br  1.14912207792883     -0.25533345345652      0.36690435665858
  C   3.03681769382488     -0.05478083484859      0.17342988420446
  C   3.62305331422482      1.20202565489895      0.14281780317238
  Br  2.63833831514312      2.80195202629679      0.34303819525497
  C   5.03541541378277      1.29206684747484     -0.02047530338346
  C   5.75156441596392      0.07220127162164     -0.10545599744215
  O   7.09937910120625      0.27247581847767     -0.22574241304832
  C   7.33294061269892      1.68436736858445     -0.24636008810638
  C   5.96597929746098      2.36152838886452     -0.10994015829654
  O   5.84278159791917      3.59526164841007     -0.09627875864335
  C   5.18924531619160     -1.17144573751498     -0.06332057196430
  C   6.04968993139072     -2.40679214830498     -0.07673650138364
  N   6.87808562007957     -2.60036035033174      1.12312089622532
  C   6.06916979317814     -2.61312126029306      2.33653595246443
  C   6.89991627851311     -2.72856510336154      3.53492379431721
  C   7.57774054100914     -2.79664512910238      4.52098074061462
  C   3.77455218232413     -1.23061390090945      0.07327272567157
  H   7.82150676887056      1.95690471257605     -1.18674336675697
  H   7.99377817483851      1.95253076848919      0.58367437849779
  H   6.73554277635324     -2.38564461933588     -0.92572292094800
  H   5.41536622013959     -3.29079199442471     -0.18879881707138
  H   7.52938744257183     -1.82290465052436      1.17757851554739
  H   5.39540722325371     -3.47436448127497      2.28777868326847
  H   5.43293951249536     -1.72312802477679      2.43582811636313
  H   8.17908580055356     -2.85076814955304      5.39550798475108
  H   3.26919457808346     -2.18605466768117      0.09818287003307
