27
Coordinates from ORCA-job 20463optt
  Br  0.75495066221306     -0.67171262685134     -0.55895131309086
  C   3.11417274669060     -0.03962322023046      0.08015246696652
  C   3.71647554924976      1.13977964100233      0.36511887176245
  Br  2.62298239927812      2.60431289419110      0.93851579760891
  C   5.12554406900265      1.27358744937902      0.23727759186438
  C   5.84878644580731      0.19035725708102     -0.18755954011276
  O   7.21321848443524      0.26848955081981     -0.33673216912373
  C   7.64536075259353      1.04716241240668     -1.43275775273794
  C   7.76959094469708      2.52426684242234     -1.06207293878657
  C   8.36212631821536      3.31325359948568     -2.22590627300615
  C   9.77370143359388      2.91234594411200     -2.54607657192803
  O   10.23905958444259      2.85322373259560     -3.65103544138339
  N   6.53649142705248      3.16550177364038     -0.63273738658395
  C   5.87819925730701      2.55581996867965      0.52503015904942
  C   5.24703554487488     -1.08591308091758     -0.50758302859346
  O   5.83304939908124     -2.08597050251976     -0.90175488892197
  N   3.86803262460606     -1.07486204205981     -0.32554015941897
  H   6.95694240632933      0.92596542050952     -2.27779502673109
  H   8.62123608599925      0.65112954164964     -1.73146666130039
  H   8.46065107192048      2.58233505507558     -0.21190731927529
  H   8.38493720439187      4.36967639282879     -1.93667138733627
  H   7.75563092767460      3.22887337302532     -3.13051883843521
  H   10.40714192231317      2.67969051929760     -1.66420610294457
  H   5.87890743810328      3.21251000682567     -1.40559268425116
  H   5.19631514125084      3.28717260169370      0.95049559935684
  H   6.65279406158958      2.34710346182665      1.26721113555097
  H   3.38466609728648     -1.93147596596919     -0.57593613819771
