21
Coordinates from ORCA-job 20469optt
  Br  1.75975666640462     -0.46140631780933     -1.41582519522518
  C   3.54486166573483     -0.52228373451289     -0.80586350278601
  C   3.97430726147751     -1.32799080281005      0.18163693772265
  Br  2.85956661310824     -2.51413615689181      1.12088714694228
  C   5.36539033981029     -1.25914795995317      0.51114082209575
  C   6.16718651570978     -0.36968894447185     -0.20812580713605
  O   7.45202176756060     -0.44187434929282      0.25210973157149
  C   7.46299244724279     -1.38565394585109      1.24137832830178
  C   8.76968784252208     -1.74682230278359      1.83406712216352
  C   8.98171207619451     -3.17847184164893      1.37429754987963
  O   8.70129526244888     -4.13709834380379      2.10770168241426
  C   9.39469831820359     -3.32444028460727      0.00688837636486
  C   9.79249240871330     -3.41899484289914     -1.13028954821719
  C   6.19610060910486     -1.90480254936227      1.43046569577489
  C   5.74400652133610      0.47889290705085     -1.23447482520012
  O   6.31117798100576      1.28570672078164     -1.92599971043583
  O   4.32081046130714      0.32574943162407     -1.48116203089302
  H   8.75044993574232     -1.73318205501549      2.92527114682755
  H   9.53600343333532     -1.06878180628269      1.45825031553409
  H   10.12042952315002     -3.50450649977889     -2.13717003730389
  H   5.93805234988715     -2.68406632168143      2.12781580160453
