22
Coordinates from ORCA-job 20471optt
  Br  1.30530681419594      0.20176523839922     -0.61273980341817
  C   3.18532144037669      0.32903087119241     -0.29728678878296
  C   3.77603929452736      1.53880280157603      0.08811534086468
  Br  2.72620681718640      2.91405136936416      0.85923735740692
  C   5.20076056315041      1.54700554856034      0.14927642375055
  C   6.01091168014787      2.65209688806442      0.36894323521869
  O   5.49975268976689      3.94181608194012      0.46060036235160
  C   5.19929443520273      4.47504265680285     -0.80446433619179
  C   4.80862507487300      5.88374855474058     -0.65055395837614
  N   4.52732464801657      6.99127000178537     -0.57128309954506
  C   7.40377925864439      2.50473858948832      0.45583299966625
  C   7.99766073608792      1.30124312863810      0.28751749405667
  C   7.22822150760799      0.12062917642502     -0.03449481867231
  N   7.71147608365087     -1.04488227452843     -0.28349941239253
  N   5.82423255463309      0.31754003309923     -0.05593969971956
  N   5.12652620109648     -0.88207881633159     -0.32001336155492
  N   3.83558500740738     -0.77984963607243     -0.50089158856445
  H   4.37594440191573      3.93311342838198     -1.28194300321690
  H   6.07323340801274      4.43387845780942     -1.46446835602748
  H   7.98887352785620      3.39311069433423      0.66733999122015
  H   9.06931523751495      1.18160888323938      0.36633093831780
  H   8.72360861812818     -0.97868167690883     -0.21261591639104
