18
Coordinates from ORCA-job 20479opt
  Br  0.49176660691955      0.10301722907965     -0.77656369664080
  C   2.85147497792918      0.08090746688926      0.02551068564225
  C   3.60548310983561      1.17064929035178      0.10605538659758
  Br  2.76837492117995      2.92049373659949      0.15801097219024
  C   5.04423732102335      1.13936915279655      0.18090596405061
  C   5.75310678331870     -0.02054624814445      0.14506634325021
  O   7.12633536651968      0.02894250118629      0.27758690521935
  C   7.72374000405135      1.12541811446217     -0.37326112388763
  C   7.09160233197833      2.44287282566226      0.03251484716003
  O   7.70206491783942      3.48938580804257      0.05556068953758
  N   5.76754579924062      2.33075572572299      0.32068439698533
  C   5.21023822517880     -1.36288082765551      0.06446950022199
  N   5.88683181461101     -2.44747139029582      0.06273689260635
  S   3.44337460594062     -1.49655943750810     -0.01889521870843
  H   7.63094615441569      1.02780235946905     -1.46321202003367
  H   8.77558852581074      1.14284251211936     -0.10030887861549
  H   5.24409312731096      3.18439278858665      0.46963216187738
  H   6.88019540689607     -2.22639160736426      0.11450619254714
