26
Coordinates from ORCA-job 20474optt
  Br  3.36153138150932      1.36446381913529      2.06583967804432
  C   5.11241432121953      0.38908108778964      1.75989212277547
  C   6.09625834412135      1.01366982580160      1.00089155264206
  Br  6.56277520831914      2.81461488575073      1.42408767393561
  C   6.78437840005609      0.31192268424404      0.02154855233287
  C   6.35763528671307     -0.98366847179399     -0.27528951522012
  O   6.87442208076898     -1.66034691148533     -1.36782239901272
  C   7.79237878343880     -2.68681057712514     -1.06781076864625
  C   9.18984405717282     -2.16012296219662     -0.74886136322124
  N   9.36142482810222     -1.66522835925962      0.59963810718047
  C   9.41237101356477     -0.38649475960362      1.06800413171595
  O   9.56943154370977     -0.18031551692942      2.25635181648560
  C   9.30052140167559      0.76719879594830      0.08565037296859
  C   7.98001048682166      0.85455664258230     -0.71457753311212
  C   5.38924720630674     -1.66454946516482      0.50427983472939
  O   5.00461016961066     -2.81057617831665      0.37801161206564
  O   4.88949763269313     -0.93422485713901      1.58299810866535
  H   7.84940981874865     -3.30745479027375     -1.96536894475205
  H   7.41508636862583     -3.30413551014749     -0.24595209676161
  H   9.44835552255009     -1.36972100075008     -1.45380188249587
  H   9.90715660144864     -2.97244764394546     -0.90640586388545
  H   9.33286909170027     -2.34554138167694      1.34523655667498
  H   9.41244190417017      1.65523086978427      0.70402189803604
  H   10.14575437386701      0.73020507277027     -0.60900280055455
  H   8.06523211086346      0.30849310286089     -1.65116640061563
  H   7.81394206222184      1.90420159914063     -0.95839244997473
