23
Coordinates from ORCA-job 20472optt
  Br  10.31132097794312      0.71853379106959     -6.78172853557918
  C   7.91494959319859      0.09737126264546     -6.38263066362603
  C   7.01922015745125      0.59928857438082     -5.51744510158306
  Br  7.11090576374146      2.46024273074820     -5.07125253588161
  C   6.11329703797916     -0.23194840236916     -4.76886411545806
  C   5.93496910691904     -1.55068318560743     -5.09018770851069
  O   5.36630140962432     -2.50908219506645     -4.28595537670148
  C   4.00361730236044     -2.88047575859458     -4.53046284201459
  C   3.07376726083018     -2.11049483818585     -3.56771524948509
  N   3.52042798523281     -0.76135875047893     -3.76105056405860
  C   4.50321901542727     -0.42858462347788     -3.03900908640006
  N   5.52240183269482      0.30328180181655     -3.60974106920525
  S   6.55087515241084     -2.16623319848088     -6.60206673373671
  O   6.99657166603041     -3.52516480486275     -6.45840112159938
  O   5.62975216329899     -1.89539210969522     -7.66972003788637
  N   7.88274542064795     -1.19737405416968     -6.76823302163685
  H   3.94733186279398     -3.95752698846750     -4.37313760083848
  H   3.73596266837333     -2.64222046147060     -5.56077032870493
  H   3.21315565341835     -2.48174546666085     -2.54074055474748
  H   2.03467985751809     -2.24783403645752     -3.86934689926326
  H   4.66993560050496     -0.80940108035350     -2.02014073567522
  H   6.12585830082221      0.87957373412299     -3.04264054777381
  H   8.70373421077814     -1.59177194038478     -7.21575956963360
