21
Coordinates from ORCA-job 20473optt
  Br  1.06257327798531      0.08460561181184      0.46052238256990
  C   2.95177330429449      0.24597632738499      0.20937483935367
  C   3.61586998650966      1.43426340237208      0.46408625744479
  Br  2.66353868293618      2.92443431320478      1.15245391721279
  C   5.01969573005867      1.50933674243998      0.23505206490755
  C   5.89001927374000      2.57799152309714      0.36336510390165
  O   5.47727567849578      3.85761099383673      0.69731705643811
  C   5.48714654780887      4.75070481371824     -0.38506803377203
  C   4.53663674762619      4.40209025892654     -1.46089832784415
  N   3.83122698151151      4.19425580234798     -2.33950416865300
  C   7.30971919230953      2.41394055762785      0.21940215792005
  N   8.22316772565675      3.28475423982702      0.43665486660004
  O   7.76682616781252      1.20344167361364     -0.21948807933283
  N   6.93976795821651      0.12254403268336     -0.45094812406426
  C   5.64666434656566      0.27785188518261     -0.19787444459948
  C   4.83087851983857     -0.85584847403853     -0.40386318181676
  N   3.52594439005040     -0.87029358427132     -0.21639925255060
  H   6.48204530752848      4.81292568560598     -0.83917480976085
  H   5.21065053329881      5.73055707182102      0.00507653591056
  H   7.78961513576466      4.11872508531849      0.82125731366113
  H   5.30396451199138     -1.76986796251048     -0.74334407352628
