18
Coordinates from ORCA-job 20484optt
  Br  1.07069095095700     -0.36177661486804      0.24570870237031
  C   2.91985627341232     -0.07226975932808      0.00775320364457
  C   3.52561831783702      1.12852404206123      0.02674967057474
  Br  2.49639633398994      2.68879024503159      0.29414289571213
  C   4.95993278871806      1.18699503440006     -0.16303706752008
  C   5.62138818892931     -0.06304056539645     -0.17292002580781
  O   7.00159201439503     -0.15867540083491     -0.03782970363556
  C   7.84215009452547      0.33029807061792     -0.98780542650030
  N   7.90664363870528      1.51987484039221     -1.40874901896778
  C   7.00172038676076      2.45760205527572     -0.96860110662772
  C   5.72229885084102      2.34683009634841     -0.42458967488261
  O   5.28606816100398      3.60652573626128     -0.24663046586605
  N   6.30037467931206      4.47907744752384     -0.69555256878495
  N   7.25589929434662      3.78868625852445     -1.11047728649414
  C   4.97260917235424     -1.31213979876963     -0.19146708722172
  O   5.43693097843478     -2.42757529167661     -0.21422588293205
  O   3.55271450843946     -1.23584696663482     -0.19350059854536
  H   8.56611536703758     -0.40787942892820     -1.31596855851562
