20
Coordinates from ORCA-job 20481optt
  Br  1.22760491488400      0.06436077929143     -1.51607032200105
  C   2.80282937908023      0.15017189471303      0.15304244601054
  C   3.50039527353298      1.30773367437555      0.22844990676547
  Br  2.62679698213185      2.98897488317251      0.25585226144970
  C   4.92519112496201      1.26845500441666      0.19585549104564
  C   5.55673044213541      0.08084958970232     -0.01076109088833
  O   6.90260880649381      0.29546435786771     -0.03508427822150
  C   7.00625081091352      1.62813401611097      0.16506765484983
  N   5.89812462212117      2.25912331784120      0.31295904419216
  C   4.89773066678424     -1.18017565596010     -0.09894107656697
  C   5.48436538700903     -2.36290202899823     -0.30688306175781
  O   4.77302174367181     -3.53735366397083     -0.29574973841695
  C   3.49197679947929     -3.55412905909379      0.15495400146111
  N   2.86686222985399     -4.63481138453307      0.31008321569447
  C   2.78734330925188     -2.23151497779132      0.44966157552217
  O   1.67782114742208     -2.23168122001485      0.89181899883292
  N   3.50487732863658     -1.07438404416688      0.14964527049262
  H   8.00495832423837      2.03264143737488      0.17792057581009
  H   6.54021265597367     -2.49772515518136     -0.46375756623490
  H   3.47329805142393     -5.41523176515583      0.05793669196080
