24
Coordinates from ORCA-job 20491optt
  Br  1.57105078277552     -0.77264128760427      1.23367567058723
  C   3.32277596937935     -0.23479796694531      0.74363990231860
  C   3.73349545549544      1.03848700396805      0.55939141898926
  Br  2.66533655641335      2.49332322890597      1.25012211934396
  C   4.95503185592177      1.31188371872909     -0.09545435894307
  C   5.54439875345975      0.20220845255632     -0.73220150956635
  O   6.44464574443363      0.30169190799983     -1.81006463558415
  C   7.65560610979943      0.88072651022338     -1.70970810061976
  N   8.54167323821349      0.72689441228658     -2.60216378429436
  C   7.85932767368171      1.83025369198897     -0.56452951653557
  N   6.87281505669860      2.90602205103636     -0.58697864678616
  C   5.63672724276535      2.63192228934523      0.13847498195280
  C   6.03052826628901      2.87381065942344      1.59877151369432
  O   6.19547837697991      2.03040898447742      2.43300270339253
  C   5.08556603202161     -1.13462445274034     -0.55270948235913
  N   5.46134932647632     -2.22066636555823     -1.11621381424998
  O   4.10924525624800     -1.29657371700331      0.43037323349448
  H   8.20329676629801      0.06817924893628     -3.30443675387811
  H   8.86674513219438      2.23293069180170     -0.64997092223760
  H   7.76921889855462      1.29500621616550      0.38401765147127
  H   6.67849761776835      3.18965914607567     -1.53856465380707
  H   4.95060785894974      3.45052906289177     -0.10059953124110
  H   6.22432262329165      3.94368701067591      1.82128127128757
  H   6.19925940589087     -1.99532049763603     -1.77715475642961
