21
Coordinates from ORCA-job 20506optt
  Br  1.20288277814752      0.44654797392480     -0.45120377548180
  C   3.09156351707797      0.21725328758982     -0.28998279204171
  C   3.65213061581617     -1.00879702028907     -0.07131576883894
  Br  2.61833976344554     -2.57861010573499      0.13497764866662
  C   5.08397419609112     -1.11889964873885      0.01204247359981
  C   5.78006128991051     -2.27487352196227      0.20238394732190
  O   7.13276796566868     -2.32817576233484      0.26916282765129
  C   7.92934948895010     -1.17874940509338      0.16373868208013
  O   9.12610333766487     -1.36290087579079      0.25133600455071
  C   7.24100564873145      0.04227913938103     -0.03101199800648
  C   5.84720632967361      0.09972994524339     -0.11559287490342
  C   5.10039606028705      1.27000369625651     -0.31339391044719
  O   5.82311843905940      2.43894613483867     -0.39590734602276
  C   5.09412055685958      3.60226745761700     -0.66007624778272
  C   4.73761329098854      3.74825599693887     -2.08676430680991
  N   4.48823363399974      3.92910753114785     -3.19013717644023
  N   3.79127066337073      1.34886584771120     -0.41066172329612
  H   5.32292087073779     -3.24531344946403      0.31299429580407
  H   7.84289342158732      0.93232389859453     -0.11838868087359
  H   5.74028187094259      4.43840397133874     -0.39524289181893
  H   4.17276626098962      3.64233490882581     -0.07795638691074
