21
Coordinates from ORCA-job 20504optt
  Br  0.86566493787980      0.07047286142041      0.21901259107295
  C   2.73383276219737      0.08913217078528     -0.06284497176091
  C   3.52882541050579      1.13209818514702      0.19780386681233
  Br  2.79292477056845      2.71895560075107      0.93743358724314
  C   4.96385403095111      1.12207973914377     -0.07514222918911
  C   5.68282054471293      2.25406464421860     -0.15443826958765
  O   6.99697545142906      2.30516542203339     -0.39165919587451
  C   7.77230407884199      1.11687090132377     -0.19699905380244
  O   8.97946806637673      1.28908470244716     -0.14182251023492
  C   7.06210565023181     -0.09626537099194     -0.09027986208440
  C   7.73462901917792     -1.30457592451295      0.11485608600583
  C   7.08095465747537     -2.56322258272685      0.15181913600050
  N   7.60136436012762     -3.74380891190873      0.34542309116832
  C   5.63387318571297     -2.49707622099687     -0.08853289955698
  C   5.00644896494773     -1.32469471641079     -0.27800785959982
  S   3.31745191652280     -1.38822009331019     -0.78668822811217
  N   5.63813347983624     -0.10518481148462     -0.24480008576533
  H   5.23121139739159      3.22426977579496     -0.02166720451720
  H   8.80874572574207     -1.24394125199336      0.22354062259578
  H   8.60543908746979     -3.64313539170363      0.49114145285858
  H   5.08097250190079     -3.42406872702550     -0.14614806367201
