19
Coordinates from ORCA-job 20515optt
  Br  0.95204805115653     -0.55966237964713      0.32483333847616
  C   2.81422758100892     -0.34989847165003      0.17761420010688
  C   3.66970014761954     -1.36332853770795     -0.01130524836163
  Br  3.14533472076311     -3.16097936436825     -0.15159341155824
  C   5.06670037034141     -1.02877011176476     -0.10201722260006
  C   6.20765392423465     -1.72310106747700     -0.30013651260257
  O   7.27070883980206     -0.85881630845490     -0.29195858613832
  C   6.80292399059657      0.38315945837500     -0.10072744154654
  O   7.61269141495560      1.39383731087783      0.01078775930816
  C   8.89174456724694      1.34142326584034     -0.73754887482829
  O   8.89867305611081      0.85259097977569     -1.87107891847507
  C   9.88767464533169      1.96631947818839      0.00879529451425
  N   10.74630762620619      2.49441986202583      0.59997977660079
  C   5.43553343329899      0.34856519573398      0.02268201153034
  C   4.47853393927727      1.40197085326323      0.21809166258155
  N   4.61417767259953      2.64572707318111      0.33537686416666
  O   3.14911336285578      0.94718848869727      0.28849461382077
  H   6.43056612607819     -2.75934221605370     -0.47339537310469
  H   5.60268653051615      2.88269649116505      0.27310606810984
