22
Coordinates from ORCA-job 20510optt
  Br  1.22046165107530     -0.40654408927002      0.35930756704203
  C   3.11910716127725     -0.19259891922955      0.21271570560711
  C   3.69185840397729      1.05861401263403      0.21924088211573
  Br  2.70408869417321      2.65427406149284      0.39121742899991
  C   5.11274763548615      1.16199620207308      0.11214955835871
  C   5.79708782413423     -0.06167359961020      0.02281599036543
  O   7.16184316885515     -0.11406235416282     -0.04930303862484
  C   7.88178763678061      1.09366339367236     -0.04380916294723
  O   9.09180529433674      0.99330676681467     -0.09557423826852
  C   7.09802014865650      2.27474347439883      0.02285743751648
  N   5.75575016365147      2.33682892192707      0.10693255303947
  C   5.11095559031112     -1.26662542727078      0.02037580989939
  N   5.81236657296860     -2.45360677759356     -0.10507665563037
  C   5.14692213740815     -3.67591052556339      0.29971965248598
  C   6.08658642934728     -4.79520446131824      0.30018404170458
  C   6.87043372442892     -5.70048076191614      0.31086658601868
  N   3.78111377640652     -1.33304189709763      0.11711719790105
  H   7.65187269471157      3.20406267238708      0.01408487751507
  H   6.79288276308919     -2.37887032609359      0.12295137576366
  H   4.32587164102088     -3.88340504916982     -0.38909404592298
  H   4.69319151048557     -3.58258655063019      1.29401137048361
  H   7.56724537741821     -6.50287876647402      0.32130910657705
