22
Coordinates from ORCA-job 20517optt
  Br  0.90431372105855      0.44433654807854     -0.34839840211436
  C   2.76997717174006      0.23718703419039     -0.06237919175026
  C   3.34906516463540     -1.04610759289554      0.11298446427815
  Br  2.31350027741978     -2.50141714986562      0.72906093895158
  C   4.74144822513524     -1.16751268865887      0.10527905118808
  C   5.68321036828582     -2.17748859658221      0.24117602618996
  O   6.96511451841669     -1.57604889948227      0.29534597867098
  C   6.83376117138916     -0.24218324540926      0.14732186800500
  O   7.74146910831991      0.55367100216157      0.14796831931265
  N   5.49923666640400      0.01658969266065      0.01619414561627
  C   4.93480618241725      1.28489725944666     -0.14728831228929
  C   3.57758980459168      1.37433298795628     -0.21182588307086
  C   5.62894492050928     -3.58871071740794     -0.00556811217154
  N   4.75075464676693     -4.24595506480529     -0.66895039787394
  N   6.69346532714086     -4.36453134424682      0.50571350269652
  C   7.45290523621936     -4.12151843393388      1.60461576581964
  O   8.24899831454288     -4.91865527494425      2.05363566547216
  H   5.63683628635659      2.09881582360454     -0.21489377367371
  H   3.11970055846130      2.33821450178114     -0.38091102021269
  H   4.07511206531239     -3.61375648562197     -1.08656344950137
  H   6.73585903940384     -5.30147193833740      0.12740298537595
  H   7.28193122547292     -3.13468741768841      2.05007983108109
