20
Coordinates from ORCA-job 20516optt
  Br  1.58459171034790     -1.00064021104263      0.09659007813085
  C   3.38973616056663     -0.47384851104316      0.00694097868278
  C   3.82019768576610      0.85706523686179      0.04659535576073
  Br  2.53631708226863      2.24181989535659      0.28779396233900
  C   5.16517936738680      1.21227280041943     -0.05366312941231
  C   6.13038936267110      0.18683501785428     -0.23884023525072
  O   7.46149140536519      0.51402733454318     -0.39689061528856
  C   7.67329663266985      1.47437046188119     -1.37217934679810
  O   7.70636969937735      2.78188168422415     -0.84194290814479
  C   6.65028976276004      3.32218921884751     -0.19620676759327
  O   6.70696583881272      4.48777679974523      0.12184882721881
  N   5.55289742741290      2.56572401506382      0.09497224376941
  C   5.72069088016157     -1.11812816606751     -0.29277415881803
  C   4.36012236114751     -1.48110777106972     -0.15856893590704
  N   4.27676982809374     -2.80993940159422     -0.25905702823470
  N   5.43607318076526     -3.35208581313099     -0.43994610964615
  O   6.43404958808865     -2.21727580192734     -0.47105075168648
  H   6.90738404601954      1.40279885126111     -2.14998948728434
  H   8.66749013888892      1.32723156759811     -1.78669615409310
  H   4.85469784142945      3.15003279221916      0.53206418225600
