20
Coordinates from ORCA-job 20525optt
  Br  1.59446798407729     -0.99868440339436     -0.11566399652800
  C   3.32974554028204     -0.25860350511747     -0.05441217203783
  C   3.58530152663113      1.07308508042507     -0.09421466674270
  Br  2.17419100247696      2.32823928934936     -0.18094518328288
  C   4.94566959222730      1.58028812355708      0.00070213998628
  C   5.31001219093025      2.87639283091573      0.09181190079676
  O   6.60327466080950      3.26238004930240      0.44770720391224
  C   7.80934258348538      2.94481090288071     -0.06777468241656
  O   8.62090200454280      3.80288858168100     -0.25973828995458
  O   8.13661212208888      1.66456489968008     -0.26250012620100
  C   7.31322384776756      0.59034098428896     -0.04301764035982
  C   5.94190749081678      0.56104241214605      0.02659132330545
  C   5.63846899359954     -0.82560502566649      0.06584515078031
  N   4.31438550120690     -1.20506046308865      0.06374709009223
  N   6.66660175279991     -1.63382635293387      0.05634824241596
  C   7.78888532232162     -0.78008924241247     -0.01395741160251
  N   9.03132785061670     -1.15259722563447     -0.05855685279887
  H   4.64467346817801      3.72242093561552      0.06899111897234
  H   4.08639009509930     -2.18292405072664     -0.00824733325331
  H   9.04461647004204     -2.17206382086756     -0.02971581508352
