19
Coordinates from ORCA-job 20527optt
  Br  1.16737629311668      0.23564210718184     -0.04192741207127
  C   3.09087497508875      0.03855351499979      0.01147943387475
  C   3.62519337622991     -1.25180900345262      0.04475164731927
  Br  2.66288582024103     -2.85479438970575      0.27415568069274
  C   5.04589535958789     -1.28285838105135      0.05810512149177
  C   5.76896793162094     -0.12482400114730      0.04879623823293
  O   7.13255830329290     -0.29851394959613      0.02403135561440
  C   7.51528090195529     -1.59259694315945      0.00538031899587
  O   8.65612004762886     -1.94282648207855     -0.01812100317824
  S   6.09946981755395     -2.66672169345338      0.02246351294882
  C   5.14335296999921      1.14265411753246      0.03243195083416
  N   3.75495605133989      1.14381879722397     -0.01170173915530
  C   5.79093469853881      2.41129175190042      0.05504471014925
  N   7.10410480027758      2.60843618688370      0.11256285498735
  O   7.27924501972227      3.99572952248267      0.12000409752771
  C   6.07772528332088      4.58193510558627      0.06854257387749
  C   5.09335911613683      3.67134421302096      0.02505487549939
  H   6.07848989114443      5.66051394432984      0.06887743354392
  H   4.02920934320364      3.81302558250258     -0.02093165118500
