21
Coordinates from ORCA-job 20523optt
  Br  1.09127114541408     -0.28679247054168     -0.32129875175094
  C   2.97649377838361     -0.18543716113097     -0.14301264438395
  C   3.73880120650728     -1.35319862704185     -0.23316123232339
  Br  3.06964796500371     -3.08713682338133     -0.49584700805992
  C   5.09993546038101     -1.14546089385085     -0.11855407434428
  C   5.65677778227872      0.08545658297344      0.07635212223246
  O   7.02774685270597     -0.07388060510297      0.14454345946300
  C   7.28915207823914     -1.39260874373300     -0.00290197158175
  O   8.36271774124061     -1.89209070283177      0.00780183782770
  O   6.11457918509768     -2.06985207230735     -0.16649908965712
  C   4.92596577908988      1.27023643208387      0.17859280521444
  N   5.53995851524245      2.45654932351794      0.35672460827002
  C   4.92584949389722      3.73483357140385      0.50764449255900
  N   3.83131056131647      3.95588206630625      1.20630380328497
  C   5.69700242569980      4.74527399516776     -0.12779059665344
  O   6.75538025600172      4.50760557855845     -0.77184043183696
  C   3.52910888795653      1.07185233165463      0.04938299906927
  H   6.49463456994042      2.55014670510402      0.01839766875003
  H   3.54588492197125      3.11468388346606      1.70011445244323
  H   5.31992999770728      5.76841437064750      0.00588162658452
  H   2.88585139592496      1.93952325903797      0.06816592489311
