22
Coordinates from ORCA-job 20520optt
  Br  3.08421465568053      1.85037948174341     -1.07022415100707
  C   4.34479874300000      0.54748483448344     -0.56158932250995
  C   5.67774279551998      0.67644628327958     -0.70039416963938
  Br  6.43440047700268      2.21823185296292     -1.47036939458272
  C   6.48793045081788     -0.42666763789385     -0.24640542295920
  C   5.85125299648691     -1.52678827450793      0.27939820702917
  O   6.69474682442642     -2.47728428006212      0.69176610642581
  C   8.04630462283587     -2.17528114703776      0.03987506611337
  O   8.28510768310329     -2.85288781734052     -0.96380677828907
  N   9.01695525414041     -2.21863100869199      1.15358368169275
  C   10.16106679715843     -1.46765647031645      0.95182283630346
  C   10.11975531582448     -0.31201413968552      0.20919113935840
  C   8.93139064966921      0.14139571002711     -0.36069602946058
  N   7.82102841720853     -0.64569034630317     -0.21922833577788
  C   4.44210585162243     -1.65096396786626      0.39424474748249
  N   3.72465458421340     -2.59731022976575      0.84967697164513
  O   3.73933548489330     -0.52126342008540     -0.04495212721776
  H   9.19045708988436     -3.18298117842576      1.40167975963412
  H   11.06589460711097     -1.80947934142416      1.43416539749246
  H   11.02176602738721      0.26719000299068      0.07644849517115
  H   8.85515194924402      1.07355184495595     -0.89407825457008
  H   4.34893872276955     -3.35178075103644      1.12489157766537
