19
Coordinates from ORCA-job 20534optt
  Br  0.94748776586344      0.05455879221257     -0.05353318859387
  C   2.83533505680514      0.05138500329184     -0.05493020236940
  C   3.58907399729188      1.17861478365214     -0.05580636501952
  Br  2.84927273167916      2.90558914810173     -0.05609799395139
  C   5.01165370371939      1.03824218757365     -0.05641225757768
  C   5.60065684877527     -0.23838505487064     -0.05596451709937
  O   6.92795342308381     -0.07297295137236     -0.05652277867409
  N   7.14384942702109      1.40901516569240     -0.05737524936965
  N   5.96897388206568      1.95809806685678     -0.05725597876707
  C   4.86316666225810     -1.41082470287416     -0.05519501943102
  N   5.17812364657673     -2.70740182738522     -0.05481293516627
  C   3.96722714487342     -3.33754727415821     -0.05424918045627
  C   2.91132283777480     -2.45925015241663     -0.05421637116757
  N   1.76307461694440     -3.19689336306487     -0.05414915521911
  C   2.19544170990836     -4.50745583087531     -0.05395505102672
  N   3.50140635080190     -4.62882509357427     -0.05399924268419
  N   3.41578740603123     -1.18750315837134     -0.05484306087842
  H   0.81609230674443     -2.86476840577059     -0.05400099626596
  H   1.48810048178173     -5.32067533264749     -0.05368045628245
