26
Coordinates from ORCA-job 20536optt
  Br  9.43016172954411      2.04156448463146     -4.80286259709367
  C   8.89505587017705      2.04546185716502     -2.96032548049751
  C   8.89649687686250      0.84805181375796     -2.22838374486092
  Br  10.24696748605355     -0.45960893215993     -2.70551885542315
  C   8.13628487171554      0.57772039316090     -1.05020497978304
  C   7.57232894780987      1.62832271310270     -0.36010407103059
  S   7.92922394456275      3.30056961090129     -0.78037193953016
  C   8.31170608323003      3.25783887501025     -2.53494778140733
  N   8.11431611320380      4.32038883301092     -3.24320667966983
  C   6.75569978970498      1.58783896413730      0.90819592341330
  C   5.31105348380521      1.04046696390018      0.84076293172950
  N   5.47509143483817     -0.38957336538070      1.14571665915387
  C   6.64172808116127     -0.49003774856445      1.62822388309519
  C   7.48591668697389     -1.71857085662108      1.60207164579324
  N   8.43429741165483     -1.45003413575831      0.51257984768451
  C   7.85660676490941     -0.89616888365274     -0.72651759833329
  O   7.34940266564155      0.64213872794996      1.82973891329344
  H   7.66577862080966      5.04001003923757     -2.68268132276548
  H   6.78926444051507      2.56728109509621      1.38350641536340
  H   4.87275759910647      1.16022805390694     -0.14882211392186
  H   4.65814834551710      1.51945442024012      1.57647270866878
  H   6.82634544711340     -2.57778095794350      1.43537572747826
  H   8.04232885941285     -1.85381892248957      2.53118235178239
  H   8.97879309844296     -2.27432437799332      0.30604076408035
  H   6.77297610323649     -1.03853736429106     -0.73797896403916
  H   8.23726924399718     -1.47988130035414     -1.55694164318023
