25
Coordinates from ORCA-job 20532optt
  Br  1.95653776071692     -0.14366414772054      3.02153349630185
  C   2.87592890746198     -0.32561810992889      1.30041877495520
  C   3.29059477194263      0.76979362637495      0.58288483120872
  Br  2.24176601301476      2.38143425521550      0.49753030850501
  C   4.39619501157028      0.66477810437902     -0.28120810415816
  C   5.33096591780194     -0.35638427766209     -0.20273634350060
  O   6.16708205387915     -0.33418818021817     -1.27493974002741
  N   5.81145778613413      0.74728624228494     -2.05670135859121
  C   4.79796320862352      1.32155223977224     -1.48551271355322
  S   5.10026399290386     -1.65033409571254      0.91748363791964
  O   5.61529698213711     -1.27160824261360      2.19843227155310
  O   5.49297219126711     -2.91808708114418      0.36035342978474
  N   3.42918106806676     -1.59053979914471      1.04004344997688
  C   2.65423463512630     -2.44437253268969      0.12114873749419
  C   2.41493973463897     -1.82956458492092     -1.23329154621114
  C   3.45168558007356     -1.97650344324888     -2.30146158522305
  C   2.15448290839187     -2.72783749914360     -2.40473466987978
  H   4.35682617518024      2.19528701127700     -1.94144440022397
  H   1.70492084906097     -2.63588693431058      0.62669754997945
  H   3.18399537671163     -3.39175396477555      0.01643941985346
  H   1.87244788351212     -0.89202937272213     -1.21123751624052
  H   4.34133354540639     -2.53780543760889     -2.04726302819536
  H   3.61848585312606     -1.13721698884468     -2.96267377848673
  H   2.18070684537219     -3.79637054263238     -2.23338906921496
  H   1.42973494787945     -2.40736624426160     -3.14037205402611
