22
Coordinates from ORCA-job 20539optt
  Br  0.98540096223129     -0.18221968522024     -0.11925946795689
  C   2.87533706592566     -0.04213873686836     -0.03863775718826
  C   3.68773720313738     -1.15814917478625      0.17058024120939
  Br  2.82702505244677     -2.86785998966983      0.30580607502482
  C   5.07888354380230     -1.15675844221003      0.27942880663466
  C   5.83252595103825      0.01708149021042      0.09606567473502
  S   5.11602451315948      1.57163337145980     -0.24793294117037
  C   3.36265504875311      1.30395501448275     -0.17625135815022
  N   2.59101938825601      2.32586715556760     -0.28657438785150
  C   7.26604181455271      0.01973225139423      0.05439380572871
  O   7.95282314951661      1.01490634941941     -0.20212005913612
  C   7.91335649784709     -1.34658367511108      0.32255282863152
  N   7.11972591827828     -2.09278305684251      1.30882998727317
  C   5.91271332635768     -2.41582009696985      0.52812943843808
  C   6.54393961404943     -2.83376915831459     -0.79166197526474
  C   7.70374487817736     -2.20180602259138     -0.91412776579802
  H   3.13814249857787      3.17986518716454     -0.37407370707488
  H   8.95039318674835     -1.20588628578364      0.62538821988926
  H   6.86311069801712     -1.47490895076691      2.07316352369605
  H   5.33146805841807     -3.19148140255518      1.01597068510105
  H   6.03346924057801     -3.43782352703856     -1.52785712697552
  H   8.35346239013112     -2.17505261497032     -1.77681273979521
