21
Coordinates from ORCA-job 20549optt
  Br  0.88658266699151      0.31983104930337     -0.08873544420465
  C   2.76746004804542      0.20706581856570      0.14447495404111
  C   3.46578592116062     -1.00398051595779      0.10188713185779
  Br  2.39417519575274     -2.58372150600540      0.11751630023093
  C   4.85792532118698     -1.14691676264621      0.05351021255604
  C   5.71802534319009     -0.01013972645862      0.00101799448797
  S   5.12317753075293      1.50193528268128      0.67696655018611
  C   3.34679721086843      1.46975200672040      0.47208811213581
  O   2.76456464552633      2.51812230562051      0.67185368033303
  C   7.02507070964220      0.17582344968982     -0.54966186025356
  C   7.94461259463204     -0.67808623271496     -1.06591960735084
  C   7.80998164538599     -2.16206752103800     -1.05270462238638
  N   7.16740605049123     -2.62974498781587      0.17170591520901
  S   5.53994157602506     -2.79606061736110      0.19491200436369
  O   5.24863673132202     -3.29996424969749      1.50778767972277
  O   5.20845508739675     -3.57423034554730     -0.96575730985207
  H   7.31510111815618      1.22206281562476     -0.57482188376831
  H   8.84729595890368     -0.25636648528440     -1.49036394248647
  H   8.78987743885194     -2.63911097782628     -1.12710325000555
  H   7.21190836815713     -2.54695446955153     -1.88446302865276
  H   7.48821883756062     -2.15724833030087      1.00981041383634
