22
Coordinates from ORCA-job 20540optt
  Br  1.37568349696262      0.28329852891829      0.90361419070865
  C   3.14221350498113      0.10640272770640      0.24137020435268
  C   4.01715293095608      1.19457580879626      0.17543890795589
  Br  3.33378406159398      2.91103742516209      0.68251157015931
  C   5.34572046023887      1.15435863059050     -0.25674165235450
  C   5.92001639005963     -0.01760628276450     -0.77653169826926
  S   5.07393227965655     -1.54077674178675     -0.86821807801931
  C   3.47984911327374     -1.23543809709486     -0.14759371416326
  N   2.67379567720391     -2.22722013429100     -0.02565777229204
  C   7.24640028237765     -0.07960134801358     -1.30801392885157
  O   7.78558098620763     -1.10254195178769     -1.73335205928974
  C   7.99037812324231      1.26480042374443     -1.32066301748031
  O   7.41681936106621      2.16226204881871     -2.27212137767483
  C   6.41989693680147      2.97203693251759     -1.63041169052423
  C   6.24239242905007      2.38208464748169     -0.22826552261398
  C   7.66565528364569      1.89996023716033      0.00967899651625
  O   8.34554238853193      2.02103372082219      0.98968971653200
  H   3.10394440556475     -3.08617302227768     -0.36238026849969
  H   9.04552329948234      1.11287740010400     -1.52999870336499
  H   5.50165504924512      2.93468503832122     -2.21627906937756
  H   6.77887630690587      4.00505020548084     -1.57872438971631
  H   5.93618723295241      3.10489380239149      0.51764935626679
