17
Coordinates from ORCA-job 20554optt
  Br  1.00961914667823      0.00271817520810      0.15935780488158
  C   2.90609132101881     -0.00973636977004      0.09650358249055
  C   3.64556969782389     -1.08400346316939     -0.23602292977984
  Br  2.81430061126814     -2.60263360466500     -0.98279741825857
  C   5.10331885418561     -1.06773957616730     -0.06830282133915
  C   5.77366248443619      0.13309979875319      0.01718436745614
  S   7.47599783842256     -0.01630348512430      0.26151507379270
  C   7.35061952051009     -1.85104288174678      0.27003203800450
  C   5.97217954875065     -2.17778136047828      0.08382020405077
  N   5.51425074853996     -3.49949228313265      0.20298337890655
  N   6.13671835075282     -4.48846823812181      0.33875437755771
  O   8.32337936021539     -2.54731300473650      0.45064919691094
  S   4.96283156038427      1.61313198588595     -0.23741309611837
  O   4.76159866577679      1.88430200593111     -1.62656764494468
  O   5.47354937150268      2.65731407725855      0.60199484870256
  N   3.46781826252026      1.21691656984139      0.39983902584623
  H   3.27049465721357      1.63803165423377      1.29947001184036
