20
Coordinates from ORCA-job 20551optt
  Br  0.83764028748951      0.40468616191629     -0.10026805459715
  C   2.70609743173022      0.17117448108390      0.07374330085053
  C   3.58417436725459      1.27443118958168      0.06639682834673
  Br  2.86049750547927      3.03104843738909     -0.02946778422300
  C   4.97629235889709      1.18020689496035      0.12960779137920
  C   5.64955373931791     -0.04740332063452      0.24903633773068
  S   4.83318649835878     -1.59100905479227      0.34833684581434
  C   3.08729726332570     -1.19524498619298      0.18910190596977
  O   2.34522946329358     -2.16267619295595      0.19959832130790
  C   7.04047811941531      0.01848702135276      0.31174594340290
  O   7.65524043422054     -1.20301538270428      0.45690060485120
  C   9.01110956742804     -1.28192983159804      0.54855096396983
  N   9.60604537440668     -2.37304150251630      0.73112019192461
  N   7.79294051003756      1.08849823970367      0.25697644108113
  C   7.17832508954720      2.30018917261512      0.13163356686330
  O   7.76175995188115      3.36790588159079      0.06496243101030
  N   5.78434426896578      2.29312289306485      0.08193262070349
  H   9.52289660278637     -0.33242577405238      0.45085834590412
  H   8.93149346515635     -3.13686835719093      0.79716085568125
  H   5.36239770100828      3.20386402937917     -0.01292745797113
