22
Coordinates from ORCA-job 20553optt
  Br  1.26982796701471     -0.25504302540936      1.20907603593549
  C   3.05346123487151     -0.21249258684672      0.56341026690615
  C   3.78831225341496      0.98525889806213      0.51904714385997
  Br  3.00239959740885      2.57348925370459      1.19792388333156
  C   5.09572036989866      1.13757366651427      0.00797785900916
  C   5.83555163635699      0.01705648345393     -0.50310437073882
  S   5.18784763252481     -1.60832675024354     -0.51284492076614
  C   3.51214020702189     -1.48688886733798      0.14201066960051
  O   2.90921543676916     -2.54950108139041      0.16632603225506
  N   7.04331298490789      0.12389859636001     -0.98842114484438
  C   7.61119525298267      1.35352552637418     -1.00680225741380
  C   6.92038943043391      2.43892937132177     -0.52139996613817
  C   7.47794721672285      3.83371746079791     -0.51399088263507
  O   8.78980304552085      3.85017767631237     -1.07998064794318
  C   9.34646001989702      5.05715552572210     -1.24471203357564
  N   10.49627224969889      5.25985107208563     -1.71370607360396
  N   5.69172363422209      2.35353890951434     -0.01810067306265
  H   8.60843053492018      1.43845490267602     -1.41191843022391
  H   7.51415367835082      4.20560580992360      0.51374617872908
  H   6.81743549602445      4.48557847580262     -1.09248780878877
  H   8.71960394109036      5.89718461452989     -0.93978927742293
  H   10.93979617994632      4.37025606807261     -1.94725958246956
