20
Coordinates from ORCA-job 20555optt
  Br  3.33898433237538      0.42578548746527      0.43418927798436
  C   4.85882272534966     -0.41195391418423     -0.36503386928969
  C   6.09667737143628     -0.38706926022134      0.26400169276206
  Br  6.37055677102021      0.48044165659639      1.91970564710866
  C   7.19859248142213     -1.02444625445107     -0.34543639842150
  C   6.95025246016568     -1.63625999292899     -1.60968916110025
  S   8.20043910920494     -2.35247043570001     -2.63997756708109
  C   9.46465476957946     -2.50654295420090     -1.44992666578402
  C   9.45923894704775     -1.83341856219359     -0.24654482072668
  N   8.41921396755588     -1.05166000288315      0.23495265524422
  C   10.65534405849734     -2.12185438510219      0.48665949063230
  O   11.01131348228201     -1.72839490494135      1.60208596035811
  N   11.36378805978138     -2.98449243407881     -0.35128106976778
  C   10.68295342796754     -3.25733754131484     -1.55363575709744
  O   11.11910798867753     -3.98227905035609     -2.44683987950344
  C   5.66591892442934     -1.59858480271040     -2.10548568539143
  N   4.62717397060284     -0.99932369742819     -1.51116064009354
  H   8.53717468133118     -0.67036358630357      1.16263641907757
  H   12.26913721193379     -3.36138419470066     -0.13330437914077
  H   5.45565525933965     -2.07539117036228     -3.05691524976963
