23
Coordinates from ORCA-job 20569optt
  Br  3.41025458688594     -0.32208051304584     -2.74006885069286
  C   4.68869872628808      0.13880416848563     -1.41103821884323
  C   5.97139547287288      0.51270689328802     -1.76862926822994
  Br  6.52752319298064      0.44946603334722     -3.58851493142925
  C   6.93484646117109      0.89837114597336     -0.80992659269560
  C   6.58045849545902      0.91318551112675      0.55357841519789
  S   7.53549603757892      1.64200724832606      1.84335447065928
  C   8.59865466372139      0.24116185526768      2.42686169894235
  N   8.45739351484786     -0.26163320152583      3.56923153198359
  C   9.53939156031590      0.06427591137095      1.30542173217332
  C   9.09061266989867     -0.43709132396535      0.14829259923880
  C   9.22319803896194      0.51990806218853     -0.97017251956738
  N   8.22119127976278      1.20532844944916     -1.33940834955096
  C   5.30363130711544      0.33862183548748      1.00094866854841
  N   5.01225505875608      0.00379592810415      2.20434371816414
  C   4.23537121218012      0.11850700763608     -0.04274680062941
  N   3.02484873370928     -0.07073433609132      0.36345243123343
  H   9.15770313375278     -0.99064978546454      3.72118822144274
  H   10.28811803946889      0.85360263356783      1.26140993616511
  H   8.24327494066707     -1.11166313206830      0.13907460353826
  H   10.20203191553921      0.78386624056629     -1.36974328596046
  H   5.78899888778539      0.21608092972698      2.83020554758491
  H   2.41265207028052     -0.21983756175100     -0.43611475727313
