21
Coordinates from ORCA-job 20560optt
  Br  1.18777097555781      0.23136155862541     -0.22153376518361
  C   3.07567652513485      0.20222423647269     -0.06591597760988
  C   3.79203195038681      1.35562470219473      0.02508609678074
  Br  2.96168438023967      3.05594327047159      0.05626038910905
  C   5.22357712311613      1.31584372747771      0.09999669585954
  C   6.11794061508934      2.35608447395353      0.20364760580025
  S   7.76819126370185      1.78566512771000      0.24833034399164
  C   7.23694046104884      0.12887309966117      0.12890186946796
  C   5.85129294962107      0.03487117147165      0.05912270636904
  C   5.09419425588401     -1.17886703211692     -0.02991460477891
  N   5.56721237220339     -2.39690953701127     -0.06109989250987
  N   3.68531366301333     -1.03083900178916     -0.07259000801306
  C   2.92142836574627     -2.26889355381167     -0.13461177957819
  C   2.48694491101630     -2.62315666542525     -1.48908618461866
  C   2.11864315570424     -2.92266519256238     -2.58902578883431
  H   5.89466370287100      3.40795277040290      0.25009521949910
  H   7.95841019291248     -0.67015670489476      0.11209988091480
  H   6.57709234448107     -2.35398503679490      0.00784462866343
  H   2.05320123397031     -2.20207690927725      0.51823700874767
  H   3.59490659991050     -3.04442107602778      0.22913764795275
  H   1.81088295839067     -3.17947342873000     -3.57298209202948
