22
Coordinates from ORCA-job 20561optt
  Br  0.88860564464143      0.13504857602971     -0.27406367704534
  C   2.78457037549576      0.03825843333436     -0.14676219048731
  C   3.56502081918751      1.18977790518271     -0.05068824769601
  Br  2.81739969206202      2.93138927602498     -0.04921819144949
  C   4.97878888638962      1.09195901243940      0.02879990990363
  C   5.93178547251296      2.08815429136242      0.09316228742133
  S   7.53720881148211      1.45481950797431      0.16310109759659
  C   6.96378090516958     -0.17347656854059      0.10440420682302
  C   5.58462178658913     -0.22768826623538      0.03597850929611
  C   4.73076737683847     -1.34249519955963     -0.03915882441303
  O   5.40226511221766     -2.57802761740863     -0.13637780796464
  C   5.02847069269781     -3.64207312375249      0.55099788796402
  O   4.05370765500475     -3.78990151583394      1.23279544897371
  N   5.95580104440045     -4.67922632508738      0.37628562017678
  C   7.14829654334934     -4.62388729648230     -0.29890973517704
  O   7.91489715547647     -5.55356893541769     -0.34946633508344
  C   3.35256332515245     -1.23251315056613     -0.14646402694401
  H   5.76008891972223      3.15057378044598      0.09425051916641
  H   7.65184036492717     -1.00144636491868      0.13200378075871
  H   5.73317464546047     -5.53779124541332      0.85897720922360
  H   7.32520690001976     -3.65657949925203     -0.78206533514824
  H   2.72813787120270     -2.11030567432564     -0.19658210589537
