23
Coordinates from ORCA-job 20567optt
  Br  1.06439352612272     -0.05778133594838     -0.22461943632633
  C   2.95407759228538      0.01453078182167     -0.06424719927026
  C   3.69231989301141     -1.13939261722767      0.10751254247631
  Br  2.94176685774764     -2.86492427978218      0.19063020280245
  C   5.08762604972197     -0.99385601520275      0.21881752134099
  C   5.66752425760246      0.27366739441379      0.14783399819344
  S   7.37791974554905      0.14069530231590      0.31895544177159
  C   7.18320469558234     -1.56870218023539      0.46980864733014
  N   5.98353640359250     -2.02873651001418      0.40282592312159
  C   4.91956724249713      1.45921764888862     -0.03889083071215
  N   5.51815181230866      2.65808868678829     -0.09425048036163
  C   4.86681337011842      3.88747695089467     -0.47888209095566
  C   5.98861540772119      4.91068427614999     -0.71672289922219
  O   7.17608366118466      4.45959308234971     -0.84264392809974
  C   5.58866128265050      6.23517599109944     -0.81338148190583
  C   5.15250068207442      7.37411441549678     -1.02532770684450
  C   3.53391398559286      1.28398961133110     -0.13416639029793
  H   8.04945890338779     -2.20050578204615      0.61194244465833
  H   6.52598732175480      2.75797675667190     -0.24301650147266
  H   4.17380410385343      4.23172022720982      0.29472977914431
  H   4.28324505142306      3.73560724162710     -1.40041381476504
  H   4.92301885472536      8.34252508413471     -0.62816738009703
  H   2.89880929949204      2.14683526926315     -0.26632636050818
