24
Coordinates from ORCA-job 20576optt
  Br  1.04213918242213      0.50817639988039      0.78395744783286
  C   2.99081904563899     -1.02560387845350      0.09074884569536
  C   3.36201746603779     -1.91334944456265     -0.85981611185240
  Br  2.01956766442284     -2.39212208746089     -2.12590467083552
  C   4.72447682005772     -2.35430070374405     -1.02928588350410
  C   5.28993420145006     -3.11358264384121     -2.02659909570215
  S   4.55469615052758     -4.47990382870268     -2.83083441249538
  C   4.73042087272762     -5.67689439658436     -1.53054694736070
  O   4.48368276584171     -6.84793849739565     -1.66520943900836
  C   5.19577921908905     -5.09273102196985     -0.19024427544668
  N   4.37873569303282     -4.81548047890976      0.73709567684984
  C   6.65199354333724     -4.91420037365111     -0.03176425982299
  C   7.31792241820027     -3.76685311258617      0.17181280258144
  N   6.89945538281133     -2.45534010503346      0.19220915553850
  C   5.58731032112737     -1.93698270974251      0.07515762566438
  C   5.15206894779188     -1.07985159014879      1.02862809428873
  N   3.88758942201757     -0.58984392492911      0.99439817540739
  H   6.36661286583815     -3.15682691930496     -2.04602570707555
  H   3.41341359722626     -4.96374961456592      0.43066504735864
  H   7.25496366675898     -5.80749689549358     -0.14446338411334
  H   8.39516834560700     -3.83507583347925      0.27757897334153
  H   7.59233099287485     -1.79925808794924      0.50589268910195
  H   5.76957596595525     -0.79715702074053      1.87168106695258
  H   3.55432544920539      0.09036676936893      1.66486858660400
