22
Coordinates from ORCA-job 20574optt
  Br  1.91853134831476      2.11519253711829      1.37821857963196
  C   3.49532864136673      1.71185598804522      0.41318706688725
  C   3.64724576314335      1.87805495134819     -0.92100549843440
  Br  2.31208943730767      2.75274849468471     -1.96413257007537
  C   4.86257725814539      1.46874254008363     -1.56523167040312
  C   5.60163486982168      2.33637220463304     -2.39960961373471
  S   5.60606555502757      4.02730812367594     -1.93473523456082
  C   5.97020079826802      3.86720298476655     -0.13013726622712
  N   6.91265263670481      3.21593743138475      0.38660115024422
  S   4.73360063156555      4.71315645468232      0.84476941387240
  C   4.57904652593194      4.09770325110585      2.53486402969452
  O   4.15774470098423      4.89751474315227      3.31934370350431
  O   4.77120615612840      2.83547052825786      2.94699266464886
  C   5.19966168365777      1.72961896844959      2.23946782746776
  C   4.64321098859562      1.18900129111804      1.15227621946157
  C   5.38245074396038      0.15603939627500      0.40638267902308
  C   5.51276226473466      0.34404779481724     -0.92199273152495
  H   6.52400352526446      1.96471427277688     -2.83312167769203
  H   7.47347316971951      2.78282937244392     -0.35167842147188
  H   6.08978475032804      1.30623171679324      2.68314531000514
  H   5.90990614482212     -0.62672731167040      0.93764437286955
  H   6.19682240620707     -0.26701573394224     -1.50324833318622
