23
Coordinates from ORCA-job 20570optt
  Br  6.11005428698798      1.32270918051809      0.13601860520643
  C   6.55819213774130     -0.51857448220688      0.01553044832604
  C   5.63903267059153     -1.48932804637080     -0.04724851425491
  Br  3.78303225555550     -1.05437247363809     -0.01886272867575
  C   5.99291073583271     -2.91675080989521     -0.20282060599491
  C   5.13503212799286     -3.89477245572636      0.24596161429673
  S   5.41438968171958     -5.62116152632275      0.29756344578992
  C   6.92595277426347     -6.04492599220778      1.22399349196317
  N   7.09902748681166     -7.24138833358159      1.60323494856363
  C   7.96892637194431     -5.00920965329086      1.25419807127830
  C   9.03888861325910     -5.22998293303215      0.48794895122378
  O   9.91567162106545     -4.34169835594640     -0.03527898098857
  C   9.71423308703570     -2.94752470951987     -0.06788406390609
  N   10.73970459844703     -2.19232234034241      0.14737620328260
  C   8.42087814462428     -2.43985456083663     -0.35946341540693
  S   8.29005658615017     -0.71309264069267      0.01552488730193
  C   7.29421384389839     -3.18658723611869     -0.69734689583862
  H   4.15757033923815     -3.62707218653045      0.61643837396986
  H   6.28236944080849     -7.81713435201388      1.39266487997395
  H   7.69513211145459     -4.01891291164067      1.58514758676373
  H   9.24379505888074     -6.22762730401811      0.11664713853024
  H   11.53148836026008     -2.76091195215900      0.43355490515861
  H   7.45444766543681     -4.19950392442678     -1.03089834656313
