21
Coordinates from ORCA-job 20582optt
  Br  1.08349612209404     -0.33125624156596     -0.18790274600726
  C   2.97755078097871     -0.09443873236156     -0.20879051565904
  C   3.56498390092596      1.15240684394352     -0.08349542220241
  Br  2.48965460717974      2.66766147509253      0.23544854445726
  C   4.97539321691891      1.23236369864672     -0.16798452384869
  C   5.68559265130193      0.03475001726681     -0.27871485059159
  S   7.42218203895970      0.09466346583117     -0.26179772235382
  N   7.64223051783984      1.42412149372628      0.90471783967891
  N   6.86064581074392      2.42937311716612      0.76947026122789
  C   5.75203619514507      2.48680485612498     -0.03541018118734
  N   5.30350193348167      3.59737504722191     -0.54480102384388
  C   4.96426675248267     -1.15931789624034     -0.36456084133537
  O   5.66797871088034     -2.30916995017125     -0.49905616903546
  C   4.92757986082771     -3.50317369232586     -0.58756426381193
  C   5.92349089099547     -4.62850740798194     -0.70415348579093
  O   5.60129006158403     -5.77711325612875     -0.83344998053567
  N   3.65314401717330     -1.22134259148539     -0.36425569061803
  H   5.96538951171537      4.33138590329675     -0.28797547571824
  H   4.26586646868494     -3.50442965965086     -1.45835709491523
  H   4.29882445875117     -3.65630659480781      0.29452568185841
  H   6.98490149133541     -4.32084989559706     -0.66189233976758
