24
Coordinates from ORCA-job 20589optt
  Br  1.19144851116481      0.12675091142084     -0.73833812270201
  C   3.07972486959394     -0.03067327668421     -0.44207593288632
  C   3.66145134820335     -1.30106166634841     -0.35517599831106
  Br  2.78655457683849     -2.94524946264248     -0.55761120463142
  C   5.05496193227028     -1.27124092249911     -0.09075512102238
  N   5.94920507567097     -2.22790146426591      0.11197349071176
  C   7.12039641186663     -1.57188306638333      0.35456854029976
  C   6.96326054392115     -0.20516431917538      0.31068945386190
  C   7.84670884552904      0.99308956333639      0.41977084883252
  C   9.16906496126279      0.75606198729882      1.10491820680267
  O   9.62039523517476      1.55108451237779      1.89583719391326
  C   9.93768805281317     -0.50219420196496      0.76157003388186
  C   9.30818777429968     -1.75025037532472      1.39982166759295
  N   8.28149458967378     -2.32725870978839      0.56093176886706
  N   5.62491329011959     -0.03716633898263      0.01195614637312
  N   5.00958243263619      1.20365817691235     -0.11777056410115
  N   3.69510614103959      1.11374951457062     -0.33474730927344
  H   7.32735495496012      1.80008276483520      0.93465375070133
  H   8.08791854447117      1.37553622132573     -0.58447815797405
  H   10.95081038491475     -0.36379287806770      1.13782162890006
  H   9.96267245784830     -0.65071288082323     -0.32089587375776
  H   8.93366688704232     -1.48424166799168      2.40022148333107
  H   10.08797922536413     -2.50146139228739      1.52772156510430
  H   8.01445295332089     -3.26076102884822      0.84239250548597
