21
Coordinates from ORCA-job 20580optt
  Br  1.24522512689993     -0.15321126541628      1.09434660290840
  C   2.98675218598923     -0.04467394884950      0.35678272290031
  C   3.57330170066093      1.15543299328130      0.18098815402756
  Br  2.66351265588866      2.78992873281433      0.45201240893774
  C   4.98777210527616      1.23684084493401     -0.10063273612361
  C   5.77940568810003      2.31619381372598     -0.33281958829623
  S   7.42026915272464      1.79208029332980     -0.39939893972877
  N   7.08971753798433      0.18664192736154     -0.13169879707569
  C   5.76164166006275      0.03007384482768      0.00212553227267
  C   5.13637770828009     -1.21309376836733      0.22232167047551
  C   5.82651742635224     -2.41343727713351      0.36163142207636
  C   5.16532588126729     -3.65076890184971      0.37903159953929
  O   5.62636934294266     -4.78675066742083      0.49795800054468
  N   3.75414293809158     -3.55188530614162      0.17199933708923
  C   3.06494184263693     -2.41943251605897     -0.18621814067597
  N   1.94656245674896     -2.37745400985247     -0.79625343426153
  N   3.70245696798699     -1.22767870092352      0.21691313684033
  H   5.48123094552383      3.34813430852003     -0.42011877850122
  H   6.90378620789169     -2.38675211972058      0.38808197220735
  H   3.34105997277961     -4.43201622931895     -0.09624729613825
  H   1.60563049591140     -3.31817204774140     -0.97280484901815
