18
Coordinates from ORCA-job 20593optt
  Br  1.16599750394024      0.60490850554915     -0.77711159407410
  C   2.99465528537782      0.30829828392559     -0.39509728579836
  C   3.88571239365869      1.29081968696576     -0.11417252324450
  Br  3.32591276453244      3.10148028256868     -0.08505895128537
  C   5.26319038569164      1.05059737108938      0.14573472750832
  N   6.19828996952857      2.02120053243759      0.41556454684791
  C   7.29813310482333      1.31294716366744      0.50533960999024
  C   7.19128605663806     -0.04820844709341      0.30071237657863
  N   8.47017595974097     -0.70717730640835      0.28089851259063
  S   9.53675192406618      0.55895204796821      0.07967940652019
  O   9.72630297028699      0.82027817010631     -1.30279951235839
  O   10.67187100292572      0.38287019856223      0.92386284090859
  O   8.62099553425604      1.74467964617145      0.68565343584216
  C   5.82827634307935     -0.27821291402887      0.02781788963801
  C   5.09841366775798     -1.41752675870315     -0.29616911336789
  S   3.36975221873791     -1.39804178363127     -0.43567238215275
  H   8.70941649048577     -1.16936251470835      1.15603598898433
  H   5.54486642447221     -2.38650216443839     -0.46121797312766
