19
Coordinates from ORCA-job 20599optt
  Br  1.04219042243668     -0.22207303128225     -0.15668754154088
  C   2.91601125954641     -0.02479491010022      0.02299363370914
  C   3.76279443653123     -1.13455795418287      0.01019247083134
  Br  3.00170550884525     -2.86997116760827     -0.02018814684574
  C   5.17683376829792     -1.11408654516767     -0.03071948723923
  N   5.86536573578638     -2.26465530393114     -0.14457203992506
  C   7.18699664469331     -2.19814556813660     -0.29044062667391
  N   8.02085666260280     -3.19695932573188     -0.42694682497784
  O   9.29823385348523     -2.57707355561243     -0.56519434041745
  C   9.20348882849098     -1.23959828642538     -0.51111518709878
  O   10.11349833668196     -0.45423343196623     -0.59728132998029
  N   7.86779651280367     -0.98636967744554     -0.33822701793284
  C   7.20670290262834      0.21373410925884     -0.16815669043417
  C   5.87331293867919      0.16928483200692      0.01374246033830
  S   5.05814112535722      1.65647798619916      0.43391086615208
  C   3.33305977775030      1.34037569119920      0.13997671774098
  N   2.53317740128211      2.34538749061951      0.12530985076077
  H   7.81935070331522      1.10364351395804     -0.16074774879687
  H   3.04348318078576      3.22161513434878      0.21415098233046
