21
Coordinates from ORCA-job 20590optt
  Br  1.15849941142428     -0.30380396542218      0.25169102818062
  C   3.04732798842335     -0.23313311897588      0.05919694734473
  C   3.81404989550207     -1.37906758831846     -0.12461022890086
  Br  3.02068726701482     -3.09336991596839     -0.19018805047317
  C   5.22209694367299     -1.30848852434921     -0.26536229196570
  N   5.94543532996083     -2.42753799522979     -0.44472891887708
  C   7.27341935673972     -2.29213240560743     -0.55987392539132
  C   8.29428214937863     -3.22462759141524     -0.74154970621657
  C   9.46535856326535     -2.45772903914072     -0.77541094525555
  N   9.23989844319455     -1.14365501165518     -0.63234240127167
  N   7.91519669762780     -1.06715167979350     -0.50574264566105
  C   7.20975394649234      0.09829607172361     -0.33388332815161
  C   5.82796925538596      0.00627080818988     -0.20486130708196
  C   5.00984804826689      1.14135713905792     -0.01659117386078
  C   3.64329479669661      1.02592275152619      0.11216190438355
  C   10.79863711402474     -2.93932873066547     -0.93408719048739
  N   11.85902170896628     -3.36452781658503     -1.06432976065033
  H   8.18938416193867     -4.29021861450679     -0.82966392291121
  H   7.78219457006095      1.01150801770911     -0.30721296082375
  H   5.47570634276078      2.11857991424820      0.02756541655835
  H   3.02393800920234      1.89983729517836      0.25582346151276
