21
Coordinates from ORCA-job 20592optt
  Br  0.93152722784235      0.50436305990175     -0.26660204954811
  C   2.80109776692884      0.37915216551462     -0.14335150480693
  C   3.65257958458846      1.42566875741526     -0.24348785607895
  Br  2.98484864772904      3.16106470586123     -0.52724195680191
  C   5.10602400539041      1.29072126205558     -0.14511640276946
  N   5.80043057203886      2.42695408939810     -0.25491991468706
  C   7.14693217402924      2.52536360504772     -0.21044486647730
  C   7.83199056566800      3.74117654700840     -0.33563262686686
  N   9.17112331616384      3.59262301385713     -0.27065092447293
  C   9.38327011830918      2.27066312931205     -0.09965891603102
  C   8.19780319807046      1.53926325972053     -0.04984990200663
  C   8.05180559877373      0.14577752008698      0.12119178531000
  C   6.87886730302995     -0.54215584596424      0.16688033076704
  C   5.55656864988141     -0.02534020445075      0.04788104564927
  O   4.65143829753428     -1.05850246006622      0.14974138198680
  C   3.31112251446809     -0.96931382961669      0.06857589609143
  O   2.64941236113827     -1.97165627236399      0.17155117763840
  H   7.37017713335099      4.70986606417445     -0.47055648577862
  H   10.38705067969541      1.87140616891783     -0.01668517318609
  H   8.96527317180087     -0.43258984084344      0.22471403501946
  H   6.91065711356825     -1.61550489496633      0.30466292704947
