24
Coordinates from ORCA-job 20601optt
  Br  6.04631351946584      0.21383497221489     -3.10412337012329
  C   6.70298667195887      1.41003401774525     -1.14407141026962
  C   5.78994225995032      2.00434214132795     -0.32078992919637
  Br  4.18945899915712      2.80682266566155     -1.00644488749938
  C   6.12895794158019      2.16873703539564      1.01850723845292
  N   7.11230395387923      1.52134177287762      1.60786559528919
  C   7.98613449620504      0.91461806995652      0.80892199718895
  C   7.90496578509711      0.98379673222837     -0.57946834523314
  C   9.12513318140677      0.90901467757610     -1.40345008118614
  C   10.07820495507883      1.83182609823016     -1.24428152793019
  C   9.99543855483258      2.98072657837092     -0.28508181134546
  N   10.99265530916378      3.33183991456624      0.43434110900410
  C   8.71195570451459      3.71352566094305     -0.19152441595589
  C   8.25433496035193      4.11849021884737      0.99457757506223
  N   7.08589535166329      4.82331950693655      1.27520390856931
  C   5.96425790020133      4.40339707934165      1.64498346497272
  O   5.48212828756396      3.13675331828450      1.76991525193374
  H   8.84224472544692      0.45152445295605      1.29099021211235
  H   9.21047702924445      0.14425438210581     -2.16822471525698
  H   10.99396677238657      1.77514935375580     -1.82645376234589
  H   11.77127585468925      2.68904485881214      0.28345018809561
  H   8.10051733644357      3.78633756353659     -1.08276006637339
  H   8.87684871259896      3.94914640305123      1.86930673225438
  H   5.19360173711930      5.10812252527798      1.94261104978024
