19
Coordinates from ORCA-job 20607optt
  Br  4.73974647323026      0.01662281714611      2.69730930156909
  C   5.06475159765442      0.34926030665538      0.86647010773049
  C   4.63987686080432      1.47510668922303      0.24651130245498
  Br  3.47919660695966      2.77129090517225      0.96831171962181
  C   5.25872408971237      1.68503084012337     -1.06006608637725
  N   5.25878750417641      0.56977233494785     -1.89132974011098
  C   5.69598614338266     -0.49477353124818     -1.29350727539484
  C   5.94548040495907     -0.52936270261275      0.13212789441253
  N   7.18883320700617     -0.54081811197920      0.68236899345016
  C   8.29638284546053     -0.41708250557661      0.06258061038890
  S   9.52180126832807      0.61310250561161      0.89229927327690
  C   8.53677911280795      2.07474826521441      0.60369788297669
  N   7.54311499354092      2.33115455916713      1.36051591796661
  O   6.69881927069907      3.30157163283393      0.77434356507574
  C   6.85417495927715      3.33678098147038     -0.60641569708376
  S   8.60676544078389      3.01973489959360     -0.89298365706030
  N   6.07342540530599      2.62938098231261     -1.43284199786400
  H   5.91118924405976     -1.36088385147324     -1.91602297427431
  H   8.41516457185116     -0.44863701658171     -1.02136914075846
