22
Coordinates from ORCA-job 20608optt
  Br  4.84817586154123      1.69040351763333      3.16453235349323
  C   5.50352041534405      1.58809829856115      1.33940544389160
  C   4.84353728358152      2.15805246763146      0.29175600946390
  Br  3.40067283804799      3.46108005464898      0.54539672229914
  C   5.22387203618466      1.83980434009829     -1.01538191072366
  N   5.95994780573691      0.71696544734955     -1.25107178371671
  C   6.66807660714988      0.24681836825595     -0.24587017158071
  C   6.64292942016653      0.77475526527758      1.06504748880766
  S   8.17604809339243      0.94284182094646      1.96057959617082
  C   8.85751280017930      2.25228240089819      0.92741922291809
  C   9.91892969751318      2.15501346689886      0.07452489615790
  S   9.78523372471537      3.28534239728673     -1.23356830000237
  C   8.25977329905857      3.86750564129055     -0.64396085672009
  C   7.99235871860852      3.32510840187437      0.57591798361901
  N   7.14263420591935      4.31777977971368     -1.42154364605903
  C   6.64713207428333      3.23635610106726     -1.90324658863486
  N   5.30412235572349      2.87396075510959     -2.06679905309109
  H   7.35422192882050     -0.56678725530746     -0.47377421691346
  H   10.72077699712858      1.43478240516186      0.08559244963187
  H   7.04720357292414      3.50903242838215      1.06179263966011
  H   7.27643611936577      2.35784350376543     -2.04246094907509
  H   4.68688414461461      3.64496039345600     -1.82728732959626
