19
Coordinates from ORCA-job 20616optt
  Br  1.01040206564516     -0.17847029692628     -0.13213988909275
  C   2.88079112453994     -0.27861586666612      0.01383824570716
  C   3.63903819767841     -1.34533027016856     -0.28391682887068
  Br  2.86634762167278     -2.96153864588962     -0.85363679149336
  C   5.09326193450995     -1.26982414428191     -0.19641154164220
  N   5.83302933515844     -2.36819219912113     -0.24563275180953
  C   7.16231753960856     -2.28346976791356     -0.09021525322539
  C   7.85097003529665     -3.54252284274824     -0.01971834318468
  C   8.44122674480214     -4.58618610580983      0.04358101660018
  C   7.90603148704236     -1.10966603718301      0.04523017074330
  Br  9.77784351996531     -1.09141165915986      0.28235502615444
  S   7.25172188561860      0.43223913214485     -0.32111908921689
  O   7.70941428992751      1.43640129294827      0.61220817795571
  O   7.39048830539666      0.76188441127640     -1.72198655335456
  C   5.56076618140027      0.06943516787039     -0.01383507673522
  C   4.74123294699979      1.09692557605799      0.28685585577430
  O   3.38427432233960      0.90818100075531      0.45506395982222
  H   8.96820013592222     -5.50662791042947      0.10101452626150
  H   5.04264232647558      2.12078916524441      0.43446513960646
