21
Coordinates from ORCA-job 20610optt
  Br  1.00215994745153     -0.40467922321673     -0.44876302894309
  C   2.89383377156962     -0.33461172672189     -0.21801808908202
  C   3.61300515548739     -1.48221269600827      0.12695193356039
  Br  2.85208199015389     -3.17449042178288      0.41415733899511
  C   5.00340769567424     -1.34320315012569      0.27165241771934
  N   5.97795700915312     -2.18559247247348      0.57491700635313
  C   7.12494110404092     -1.44709190916264      0.55640851427153
  C   6.89876934321094     -0.12272910419165      0.24091749821033
  N   7.71124682748331      0.94968001539649      0.11030889728373
  C   7.21712681842061      2.11218805542361     -0.22774302128699
  C   8.14969843666172      3.29992925637993     -0.23452376916453
  C   7.98439924576903      4.20993162856051     -1.36863768351273
  C   7.83940338561028      4.95908789553679     -2.29301687133186
  S   5.53099235972304      2.52677149924227     -0.51592619107857
  C   4.72422613577874      1.01459929144601     -0.26634134694803
  N   3.43769710357014      0.86957536819403     -0.40738430085872
  N   5.52260734365587     -0.06974470206120      0.05893042884112
  H   8.08490997756698     -1.89071725294298      0.76924034756389
  H   9.15998475068015      2.88869369561968     -0.24156200662816
  H   8.04693710348313      3.88252104541444      0.69046366080161
  H   7.69761449485526      5.61109490747364     -3.12003173476545
