29
Coordinates from ORCA-job 20619optt
  Br  3.24074590655521      0.85073803610505      3.53562591760279
  C   3.39153654233782     -0.08001047441705      1.79308749870962
  C   3.28526643958457      0.66556857272544      0.60242156682380
  Br  1.83672620744814      1.92899479393135      0.42797510951123
  C   4.07158561152788      0.34835639195003     -0.46843552209344
  N   5.06170254180448     -0.59588421270905     -0.33470857616890
  C   4.96121355422604     -1.36713558144148      0.75297185988192
  C   5.67911420925292     -2.69104785404164      0.67887572060448
  C   4.79239166597336     -3.71472979546090     -0.07782810178135
  C   4.52019418387851     -3.33880831604337     -1.55030932898602
  N   3.35130035130453     -2.48171707434502     -1.70629704227352
  C   3.45889758925936     -1.58667994885001     -2.86142837001839
  C   2.87704292488037     -0.19150921659236     -2.62586877872309
  C   3.81071502663240      0.78555679702590     -1.88270279084199
  C   5.42907455052289     -5.03386322165969     -0.02239703954549
  N   5.94321381154189     -6.05935899518475      0.00796688219415
  N   4.17831075171322     -1.19370846139212      1.79789175698019
  H   5.86944499217898     -3.06320883433917      1.68419208267754
  H   6.62067062411614     -2.57954540126664      0.13985483508887
  H   3.83625558695164     -3.79887640046351      0.44861709134225
  H   4.37424288387089     -4.25093589874307     -2.13540788757812
  H   5.42675140435365     -2.84470905345671     -1.92476965393671
  H   3.22991448949159     -1.92382457010995     -0.87228611128594
  H   2.94978320385003     -2.05177908695462     -3.71222465384841
  H   4.51271235121856     -1.46319904964456     -3.14796231650064
  H   1.93009143838144     -0.27237011582209     -2.08287503179761
  H   2.64212286282863      0.24235757665844     -3.60197696032768
  H   3.36612700610975      1.77991312523785     -1.90429533821310
  H   4.77085128820500      0.82241626930374     -2.40270681749641
