22
Coordinates from ORCA-job 20615optt
  Br  3.49907692178121     -0.11252447894201     -2.28912762811188
  C   4.34802445239096      0.64043174361986     -0.76909633766853
  C   3.80783858066228      1.58937140984459      0.01469952009846
  Br  2.15464493171212      2.44263745754481     -0.34633746496421
  C   4.62240662034033      2.05651710439907      1.14571443929366
  N   5.33512442071966      3.15374099118048      0.88275390489143
  C   6.64892017908737      3.17858860914096      1.00522569617648
  C   7.49086264752035      3.86811274076163      0.08260976235036
  C   8.02410620236533      2.69331061608197     -0.64558230084243
  N   7.25055384682578      1.97545775010437     -1.40888782626957
  C   7.67548799377095      0.68351041387269     -1.25357700236661
  N   6.64768568458353     -0.29756803214225     -1.38648760138578
  C   5.64620924114917      0.07726774302362     -0.39296767262703
  C   5.99143977191920      0.20653012474024      0.89812035229631
  O   5.25615549417028      0.92565526415550      1.77287890570742
  C   8.84210564095588      0.68079140180916     -0.56021673559787
  O   9.08685214539202      1.98337491571560     -0.18381547092484
  H   7.12589403567535      2.38469555849057      1.58977177073199
  H   6.93320743988974      4.52231046863120     -0.58053438944888
  H   6.99337934842760     -1.23712800973886     -1.24334391545394
  H   6.92413680852471     -0.17870096754481      1.29858360226813
  H   9.50788759213609     -0.07538282474843     -0.18638360815263
