24
Coordinates from ORCA-job 20620optt
  Br  6.28787394810764      1.22475226922327     -1.00381952917821
  C   6.73647459833190      0.04135506404859      0.39404938561807
  C   5.88769913437392     -0.84825930197744      0.93870909418367
  Br  4.13318052909002     -1.09349427289536      0.31202645374951
  C   6.37065009128249     -1.69273550333578      2.03981973395892
  N   5.81212680772034     -2.82239736240356      2.33636253322792
  C   6.45934058292616     -3.72765835658195      3.18325777727878
  C   7.77350505515746     -4.06770266313736      3.24037657278713
  C   8.81974909980843     -3.45599484738757      2.41615084154483
  C   8.53951809086955     -3.34769291728607      1.00911989783258
  O   9.16378429423681     -2.71393925377931      0.16471678814126
  C   9.91446817577567     -2.83700976881722      3.05102643174747
  C   10.46496307551907     -1.56663706481246      2.76694039208054
  C   9.85437428498991     -0.49327249176456      2.12382746909909
  C   8.45090523512969     -0.46768597380302      1.89400913586748
  O   8.01460173661149      0.19189964334738      0.75274306702670
  C   7.54421491790600     -1.14768215691231      2.64513184269991
  H   5.77136942917207     -4.29003521510042      3.80987385854714
  H   8.05171742618363     -4.78156599691433      4.01420881644483
  H   7.66805580205290     -3.95478824410149      0.69415206515374
  H   10.29436584409500     -3.32772445273214      3.94874013032675
  H   11.47054145067971     -1.38463075821769      3.14193695306919
  H   10.45103340252403      0.34051203261473      1.77288636223781
  H   7.87548698745601     -1.55461240727390      3.58375392655485
