23
Coordinates from ORCA-job 20626optt
  Br  3.22884789708044      0.77260037715513      2.38794719148376
  C   4.41394429831834      0.97787097656821      0.91807904422936
  C   4.02654677709364      1.65258667649833     -0.24206014620277
  Br  2.54740406874340      2.86477958139208     -0.21370294588009
  C   4.86109342381257      1.71904125064919     -1.34749464235784
  N   5.00279482356111      2.74498443111498     -2.22690651500941
  C   6.10328710716970      3.45515274187801     -2.04734413323119
  C   6.88744695894820      3.36920200704528     -0.89089186221274
  C   8.19891113188063      3.82650915026579     -0.65953756013110
  O   8.97282942327016      4.46467381076739     -1.37840096926611
  C   8.65430765116106      3.48780197269948      0.76162666658061
  N   8.93075605734477      2.36558948275572      1.27393407524096
  C   9.02561427612046      1.14045952404244      0.61275616508940
  C   8.11275506574840      0.23857072722859      0.23068102641489
  C   6.65205106786387      0.38118505863659      0.14588016702440
  S   6.04238438744432      0.39284930780477     -1.50892749974873
  C   5.76948309217123      0.58189779334586      1.15126563591160
  H   6.38107009142208      4.14458748777255     -2.84077175227652
  H   6.46208796107427      2.82462522714745     -0.06125944522496
  H   8.73119474992302      4.35339336358548      1.42551766084991
  H   10.06692347752393      0.84269990728692      0.51068837758686
  H   8.52114035379931     -0.66846971386863     -0.20587543764073
  H   6.11212585852491      0.51940885822829      2.17779689877044
