19
Coordinates from ORCA-job 20627optt
  Br  1.80765240191885     -1.29446759923310     -1.20062077937437
  C   3.30143354553160     -0.41944651216741     -0.44363489716139
  C   3.72177792494891      0.81034067389294     -0.79422525171758
  Br  2.75117786876468      1.79563265680307     -2.09112617363403
  C   4.90474581359357      1.47096058252988     -0.25646736094352
  N   4.94092142990844      2.80066956456136     -0.39750997407604
  C   5.95156627326620      3.61308991524066     -0.11785750548058
  C   7.30414089929688      3.36658551510055      0.01708848111613
  C   8.23173827312626      4.47434555738750      0.14611052758478
  O   7.92606764319645      5.64693288145406      0.28728876832763
  C   7.85583045566630      2.01072211230695     -0.13568541930035
  O   8.90416050429524      1.79784842286796     -0.71101829873424
  N   7.18779860718301      0.97911657415196      0.50942783511203
  C   5.92309638700324      0.70912019959744      0.42081136257016
  C   5.53701022254934     -0.50261919076031      1.21755553715245
  O   6.16993764445910     -0.95099727339853      2.13323434154906
  S   4.04516868011359     -1.38674932807193      0.78604064025517
  H   5.67553475539722      4.66526436569631     -0.08981901868161
  H   9.29424066978088      4.17665088204058      0.12440718543631
