22
Coordinates from ORCA-job 20637optt
  Br  1.09088923513780      0.13568075923598     -0.22174232130944
  C   2.97349147728699     -0.02613790344642     -0.01987810024648
  C   3.60218090758624     -1.29474710316192     -0.05921296571507
  Br  2.72099497117333     -2.93085066194156      0.25995596233094
  C   5.01187202651580     -1.24604147737914      0.04745355691616
  N   5.94746090964670     -2.19784396783422      0.08227122576767
  C   7.09149977147915     -1.48800741594438      0.14886293844061
  C   8.44479237482038     -2.11250605880460      0.17602862111527
  O   8.92254422652137     -2.46174326364346      1.48332294907777
  C   9.36061509256203     -1.47934754511438      2.27375357034079
  N   9.30306605084816     -0.22434226593119      2.15653046682130
  C   10.06000144323314     -1.99732150345941      3.50727469906297
  O   10.25809518011831     -3.15163317636216      3.75121378002445
  N   6.95049330898661     -0.17310180448389      0.15349502320122
  N   5.62281203063834     -0.02256811465633      0.10656100410983
  N   5.05012742306628      1.21775092642925      0.10446224100823
  C   3.71451991746199      1.13570490209665      0.03629231926410
  H   9.16957880526277     -1.44014724023798     -0.28939775386561
  H   8.41578492412234     -3.05733901434629     -0.36014952434709
  H   8.76963418752763      0.10148810892912      1.34760934782843
  H   10.38372233374130     -1.17722409349567      4.17097821286497
  H   3.20982340226319      2.09227791355200      0.00131474730896
