21
Coordinates from ORCA-job 20638optt
  Br  2.52653851871253     -1.24303604395091      0.94896330945319
  C   3.98537592260260     -0.06512080136209      0.64019561510543
  C   3.87099862801006      1.05523024255425     -0.19119450403601
  Br  2.19361469406644      1.76981557624216     -0.69693314058960
  C   5.00421133463595      1.84154719929784     -0.44098489787109
  N   5.02484285811004      3.06049600032779     -0.92307425416691
  C   6.18552486645465      3.77235599962407     -0.80910607378782
  C   6.91982879855936      3.79142083000136      0.31711078607915
  O   8.30190620961329      4.04206404592229      0.28355156606136
  C   9.08583972533881      2.93444989948706      0.33883750927237
  N   10.33407401358166      2.95964180397351      0.46050577519102
  O   8.42493200892745      1.73857654909109      0.35380035983722
  C   7.43298044644326      1.55636463125685     -0.61656518507340
  O   7.66376934566660      1.72161818998102     -1.77786587825672
  N   6.23616327360708      1.13653032676621     -0.07221548521900
  C   6.16766976047622      0.32190695195010      1.06465311758012
  N   5.08645962810269     -0.32123528990622      1.36221972804739
  H   6.57532294244165      4.25210021612287     -1.70483362387789
  H   6.56291267786733      3.38698276956523      1.25573971913846
  H   10.63594964815780      3.92757794159031      0.53423384611680
  H   7.07908469862445      0.18271296146517      1.62796171099593
