22
Coordinates from ORCA-job 20630optt
  Br  1.26216014596249     -0.25517572405630      0.39687832521602
  C   3.16213074263251     -0.08726320956564      0.17530236182457
  C   3.71434808493965      1.15401254292735     -0.09455562829448
  Br  2.77175909100954      2.76107686157235     -0.31138190543873
  C   5.13897969283802      1.19609995098882     -0.14548624822142
  N   5.95883223435619      2.22312265101892     -0.25676496477014
  C   7.21335230412777      1.68885844337467     -0.16759617696653
  C   7.16883301683600      0.33292507908432     -0.00839955264614
  N   5.82971344637749      0.00675412188002     -0.00675086585146
  C   5.16666815384715     -1.22497508618430      0.13892032741350
  N   3.82424871378114     -1.20705065403573      0.29320445093661
  C   5.84441887162488     -2.45101404024772      0.11412833211363
  C   7.13706900383938     -2.81777461785960     -0.19059506278468
  N   7.32569735494050     -4.20861738633402     -0.15538879054954
  C   6.25761630136182     -4.96918235997164      0.23216630369837
  N   6.17831804110933     -6.23529748559960      0.41127792642431
  S   4.88041461861108     -3.89546107701648      0.47579913516816
  H   8.09363493732209      2.31038515095862     -0.21251603967904
  H   7.93938294462869     -0.39474796494650      0.15255727143117
  H   7.90575139043930     -2.21489265893229     -0.63832537363796
  H   8.23849243344805     -4.62575235715011     -0.21802532605769
  H   7.06817847596685     -6.68503017990513      0.20455150067146
