20
Coordinates from ORCA-job 20642optt
  Br  1.08572007576195      0.05514244293521     -0.07217359483929
  C   2.96808215156379     -0.08337874076700      0.03201181702793
  C   3.65007610156643     -1.25073607080005     -0.05713419070044
  Br  2.80197970596845     -2.91025014688081     -0.31569661313769
  C   5.08438542743429     -1.18965139829057      0.02739752500552
  N   5.99449297605066     -2.15672960748153     -0.04037657861861
  C   7.15758570061482     -1.47302050998724      0.08929989814723
  N   7.05955144445169     -0.12862397956579      0.23706699057945
  C   5.73266922435097      0.07538412009308      0.20004034417459
  C   4.98603933847217      1.25433061883405      0.30052063640158
  N   3.59201074458291      1.12169487546402      0.18869438607615
  C   8.42605073411056     -2.14177364610565      0.06431385443532
  N   9.60864302113952     -1.62396134393862      0.17490593287877
  N   10.43997294432452     -2.72174214770002      0.07815226556267
  C   9.76965272159170     -3.88280493283965     -0.08780355535692
  O   10.17302656572361     -5.01329484388398     -0.20540111852638
  O   8.45825800364404     -3.50671287805683     -0.09768396825916
  H   5.37580076959303      2.25286182135363      0.39716001692670
  H   3.00759195062624      1.92104010158324      0.35381658199638
  H   11.43541039842855     -2.62377373396548      0.13188937022619
