23
Coordinates from ORCA-job 20646optt
  Br  0.93504124489646     -0.07140517806308     -0.59859560367313
  C   2.76627991247113      0.05390704424141     -0.08808243737641
  C   3.51306363297437      1.14812544891935     -0.23368767884187
  Br  2.80220269398770      2.70843618380809     -1.04060648532290
  C   4.94339735902656      1.24008349994790      0.18967599656760
  N   5.30289262534052      2.42047795769197      0.61455463638837
  C   6.66051297001247      2.49885273452062      0.95265232672982
  N   7.32692047977811      3.80450411810660      1.28259428134778
  C   8.24652365674290      3.54557097268971      0.43258433511728
  C   7.64643564679461      2.33799899925207     -0.23991279554517
  C   8.11302108852796      0.94240387058546     -0.38802931105968
  C   7.19369697594486     -0.03405493722735     -0.25598184723524
  C   5.75223889786223      0.03087925183432      0.01103582836243
  C   5.09688700382209     -1.22826548987996      0.02186229603931
  S   3.44190666698466     -1.40178178924302      0.59722057951951
  C   5.68146252191984     -2.45805156176803     -0.29784796060703
  C   6.16039910230050     -3.54690177842629     -0.53545640242017
  H   6.92610995900258      1.78515421075108      1.74066668688285
  H   9.14335024129091      4.14066406885692      0.26311975588414
  H   7.11403485177799      2.67301412050115     -1.13461430837383
  H   9.15307023104977      0.68883587330753     -0.55439887571767
  H   7.55195998864820     -1.05048949216717     -0.37302782117323
  H   6.58059224884344     -4.49895812823928     -0.74572519549276
