22
Coordinates from ORCA-job 20643optt
  Br  1.07617433082441     -0.47914043828565     -0.34285836091823
  C   2.91449680586839     -0.12068320303764     -0.14832667499823
  C   3.47271711352507      1.11754838528924     -0.18868819103596
  Br  2.47878905701837      2.69053549423459     -0.47109818099907
  C   4.87129657787796      1.20550034722737     -0.01250323789452
  N   5.72657048773859      2.25471617184550     -0.06267542730403
  C   6.96678525932580      1.72402802875837      0.04018746031197
  N   6.87179443704944      0.31715366506927      0.13851532873019
  C   5.56021567531841     -0.04025561664622      0.11248512580197
  N   5.07350011577485     -1.25102054487086      0.14473228573722
  N   3.66117881088280     -1.25302596074880      0.18225312070306
  N   8.14721139724926      2.27132582909160      0.06071336493229
  C   8.24008098609386      3.64316334872412     -0.04395221111511
  C   7.29246732341755      4.64907516334052     -0.18615079955094
  N   7.98444226408798      5.81846949481416     -0.24146714549922
  N   9.30699338385674      5.66073446637680     -0.14801542142345
  C   9.46999134831532      4.35289875059831     -0.02873098913562
  H   7.66473798107281     -0.28943904904616      0.24221489074206
  H   3.30367981957439     -2.11040273887968     -0.21180797471082
  H   6.22104603301149      4.59777815003443     -0.24797017640169
  H   7.60746631190145      6.74205774994929     -0.34377798057169
  H   10.45836448021492      3.93098250616139      0.06792119459982
