24
Coordinates from ORCA-job 20649optt
  Br  2.75237604858084     -0.90045259331617     -2.20389677364904
  C   4.23277546315326     -0.34639779424927     -1.15243100097621
  C   4.46614457543428      1.00646616476960     -0.85159509025971
  Br  3.30996351693706      2.37081682429788     -1.42922114846015
  C   5.60710442740337      1.40605241488318     -0.08594281347830
  N   5.83541512922111      2.66396364990672      0.17788200108867
  C   6.93836978953708      3.06592419929553      0.90925453866635
  N   7.19118684120547      4.29940096743071      1.17725158910883
  C   7.83407224231316      2.01927484471753      1.38097039362305
  C   7.57219269373042      0.73810250105039      1.09864128280477
  N   6.45837407633062      0.38092520480225      0.35786086139163
  C   6.20445406167408     -0.96467546075864      0.06609954456266
  C   5.09009077662160     -1.31675557571215     -0.69685824923677
  C   5.03597291376251     -2.80850979106290     -0.89273080191071
  C   6.25881233382273     -3.33225094285918     -0.12399226120920
  C   6.97000069009577     -2.10573911206451      0.44986847684531
  O   8.01073777539239     -2.18243820499819      1.11505325386571
  H   6.45139656831736      4.86414190645524      0.76088389524868
  H   8.70435480917224      2.29274305501918      1.95847081973397
  H   8.18128505047805     -0.09874880649178      1.40811813613114
  H   5.07241991716333     -3.05766147825802     -1.95562225480285
  H   4.09543590329203     -3.21259491367577     -0.51222973443087
  H   6.95650434988442     -3.88248453881669     -0.75808230205029
  H   5.98656004647673     -3.99610252036493      0.69924763739332
