21
Coordinates from ORCA-job 20644optt
  Br  1.11893690605524      0.49149630129439     -0.77986300473931
  C   2.91918586037089      0.16850990046259      0.41616741998302
  C   3.55895268257411     -1.04647515715260      0.36667215981755
  Br  2.60148205961831     -2.66183103406236      0.55014174647847
  C   4.95258053528228     -1.10252551680606      0.23207510413185
  N   5.77197097963400     -2.12168006037319      0.20149634581260
  C   7.06303164677137     -1.63114229098566      0.05679419233533
  N   8.15483449862553     -2.28663425552617     -0.02952840576497
  C   6.99438689930121     -0.15290852699132      0.01074423983839
  C   8.00194170412683      0.70322879333383     -0.10660696577925
  N   7.94474260056049      2.07732663712159     -0.14612490632566
  C   6.86956221674007      2.95996270461636      0.07590315352520
  O   7.16656050405019      4.13735976472808      0.12609810039058
  N   5.57435432532924      2.55367624906459      0.21035727347793
  C   5.04412682464351      1.36425962013392      0.21312986739227
  N   3.69255727028560      1.30518532579513      0.35425461201976
  N   5.62497558916976      0.14222314719018      0.12305629023478
  H   7.93997231984492     -3.28045034174830      0.02531364120748
  H   8.98903606509417      0.26655685580780     -0.18576171541630
  H   8.81540344810172      2.57874645169327     -0.19913010738099
  H   3.23840506382034      2.20711543240392      0.38781095876125
