22
Coordinates from ORCA-job 20655optt
  Br  1.19952327918286     -0.15817087191884     -0.84109084438405
  C   2.93098328743035      0.11455826729738      0.17830868973143
  C   3.68513838753661      1.26334905888796     -0.03988077842924
  Br  2.81614685152783      2.94070625297494     -0.15725464228428
  C   5.07054088850853      1.22069613688351     -0.03556453143659
  N   5.80220186622852      2.34168858589003     -0.00844747635305
  C   7.11590802612674      2.20125396175426     -0.04806118436767
  N   7.79545180141626      3.40599074035958     -0.00756995108537
  C   9.16048553126367      3.65259639865789     -0.00756375038834
  N   10.13411219825827      2.85182272395858     -0.06075942282311
  N   7.82668279552481      1.09258892127964     -0.12382163040111
  C   7.15979414237153     -0.08532607697180     -0.13461302441663
  O   7.73091927434537     -1.15638980067074     -0.19465794216447
  N   5.72280554959087     -0.03664180588722     -0.05894793258783
  C   4.97405045797842     -1.24551301948815      0.00742605136927
  N   5.37382815095419     -2.43468405369869     -0.14311805500445
  N   3.64032310587095     -1.04394252289533      0.34493137266657
  H   7.17679213251187      4.19892519459631      0.04850049149773
  H   9.35481056271057      4.72530337034555      0.04909232145181
  H   9.79667521897142      1.88944740538343     -0.11050450248525
  H   6.37485441194359     -2.45329656254169     -0.30507650985890
  H   3.13797207974664     -1.91196230419664      0.45067325175356
