21
Coordinates from ORCA-job 20657optt
  Br  1.43448220126557     -0.38373102565207     -0.77645794521195
  C   3.23698506337555      0.03265739383645     -0.45805174950351
  C   3.71212892301844      1.29208744978652     -0.29614188404596
  Br  2.55831722256306      2.77754350830029     -0.33999152630658
  C   5.11917098374818      1.58094759485472     -0.02470445752726
  N   5.43891972738234      2.78731901477201      0.36498352813718
  C   6.66411981007152      3.08307100017539      0.91331871154701
  N   6.90949852095894      2.95742929572533      2.15476056694894
  C   7.67677995743317      3.64772340715682     -0.06006830321595
  O   7.97680896564541      4.83286043336680     -0.03567580873319
  C   8.35558775177142      2.68653613490565     -0.89632135969400
  N   8.27881793370598      1.37710536631105     -0.87480352468414
  C   7.40368536137780      0.47902815304502     -0.45636557436857
  C   6.01488918349445      0.48014702452558     -0.19704872838985
  N   5.44150853870484     -0.78554526347685     -0.25041126604096
  C   4.12710471591051     -1.12498670931944     -0.38481127031282
  O   3.77504234134707     -2.29521192119565     -0.45934410186067
  H   7.84699535147383      3.31071156644619      2.34608093312307
  H   9.17678922559178      3.10916531320584     -1.47123185095485
  H   7.80098333670975     -0.53564181706306     -0.52120532084666
  H   6.06738488445032     -1.57621591970663     -0.31450906805926
