21
Coordinates from ORCA-job 20653optt
  Br  1.61812659822759     -0.54355465003450      0.49575378829221
  C   3.41725937485523     -0.07596493901104      0.23278151923302
  C   3.85849914406567      1.18115529679001     -0.06304775012648
  Br  2.61659915029888      2.58479112921946     -0.28961773999877
  C   5.24756898827394      1.52919738130639     -0.26309566234132
  N   5.49594798315524      2.68380130982056     -0.86378891067425
  C   6.68428311193106      3.33980812199829     -0.92519807011414
  N   7.18085950083355      3.93862426699912     -1.93858368918593
  C   7.34912792164097      3.52828033473863      0.40731413182735
  N   8.16437769818907      2.72764238956010      0.93248081265579
  C   8.56769987272512      1.56618772399775      0.22016525572559
  O   9.74691409208601      1.41305208311881     -0.03043094474960
  C   7.59373848063771      0.51404668569690      0.00938457208729
  C   6.21338337295443      0.48080170171386      0.03314885889900
  N   5.67241939286111     -0.77982577500852      0.24628207294651
  C   4.36099385528786     -1.16898832554039      0.36667691270282
  O   4.08118263627519     -2.33804356529871      0.59160123204385
  H   6.59227316466047      3.74422030906528     -2.75050895559449
  H   7.04960383407988      4.41416752845584      0.96940364068053
  H   8.08257446882025     -0.45144855189596     -0.06994496064393
  H   6.32256735814068     -1.52895045569188      0.43522388633494
