21
Coordinates from ORCA-job 20660optt
  Br  1.07896203432141      0.16752618528815     -0.06230340582213
  C   2.96469302581098      0.05438033819649      0.06915864958161
  C   3.75159886583912      1.20007527059847      0.11458483200312
  Br  2.91346533209714      2.89800543141217      0.13732948530187
  C   5.16850641876239      1.25199511799002      0.13346471704632
  N   5.81352271711053      2.42407461559033      0.16145996448835
  C   7.16540157791704      2.44646148410438      0.12276625294630
  N   7.82477178120874      1.22502225867471      0.01634740223423
  N   7.22084092176166      0.00909833158532      0.07345166650003
  C   5.93586744726770      0.02382189298738      0.12248552365570
  S   5.20424836130609     -1.56302445969529      0.23694883320771
  C   3.45318558038548     -1.29384081682077      0.10187259667947
  N   2.69525806732390     -2.33098747764013      0.06421616150196
  N   7.80856069774397      3.57157866768031      0.16075030696625
  C   9.23633767776444      3.48512008881104      0.08691894240950
  C   9.84817973911511      4.82397806383635      0.12433767091046
  N   10.37245283411901      5.84268503930572      0.14972434275496
  H   8.82445866369464      1.16566165150774      0.06769975994053
  H   3.24168763662997     -3.18940568802734      0.09438044361121
  H   9.60191915540327      3.01136203679282     -0.84025570183577
  H   9.69408146441730      2.92441196782212      0.92066155591830
