20
Coordinates from ORCA-job 20671optt
  Br  2.52420880819955     -0.22536320393637      1.63526764529669
  C   4.19805653588592      0.22178329875229      0.89351876082295
  C   4.69426505675478      1.49227146120593      0.79619408952080
  Br  3.70069775902994      2.99569282036576      1.32934089429926
  C   5.92469105493712      1.67827181296968      0.07344526141059
  N   6.21488440409013      2.83282089583323     -0.40512109946113
  C   7.22429398441529      3.10054706251780     -1.28616340290253
  N   7.26175497299561      2.66526469978581     -2.47711822033480
  S   8.33691535701439      4.42807022187928     -0.75172077904429
  C   8.60897500174564      4.08257418660761      0.99882666582090
  O   8.82341130234181      4.99008641415079      1.75060784001700
  S   8.72155452626505      2.37922223301605      1.55303632308991
  C   8.91378779952120      1.36654770353378      0.13940660601885
  N   8.06343572830326      0.44469343998800     -0.28469321325206
  C   6.75594567243203      0.43203531144401     -0.04903143925631
  N   6.16889545833564     -0.76599222389993      0.00059287985319
  N   4.89247814599583     -0.81387038290133      0.41655948119668
  H   8.06585960556544      3.04303063400515     -2.97257517436602
  H   9.92134958759418      1.33294170419518     -0.25416768268194
  H   4.50253923857703     -1.73962808951274      0.46479456395227
