21
Coordinates from ORCA-job 20676optt
  Br  1.18689461782336      0.11913019467198      0.10236834697692
  C   3.06106709233904     -0.07423231622241     -0.00051937367570
  C   3.72954204795878     -1.23974202321639      0.16123612707094
  Br  2.87522267737637     -2.88417142638300      0.48926872950984
  C   5.14492163498310     -1.16015778473825      0.05402288222270
  N   6.11709092940336     -2.09706732377618      0.20348200020415
  C   7.20861183216119     -1.35931082285288      0.03944746862710
  O   8.40919119646408     -2.01005859334674      0.11019435176496
  C   9.58783634263981     -1.36848890305622      0.08513347505582
  N   10.66551653343969     -2.11976026624880      0.24406284265533
  N   11.68724938171529     -1.25232950307500      0.17123776551132
  C   11.28414620466813      0.01889385445102     -0.02408675282427
  C   9.91394173125160      0.00095546396541     -0.08993123978005
  N   7.08640838347047     -0.04919929912891     -0.19763688611872
  C   5.73685031815931      0.10731270943885     -0.18977757579215
  N   5.09160329925337      1.27475055807397     -0.35063876833454
  N   3.71434189116419      1.09283313756868     -0.31983017446708
  H   12.62335633497702     -1.59687130578782      0.27062387260499
  H   11.98892605268995      0.82982831395537     -0.10430761321304
  H   9.22339873682509      0.80759802843874     -0.23995224144444
  H   3.20288276123663      1.95108730726860     -0.21039723655409
