29
Coordinates from ORCA-job 20677optt
  Br  2.52679211529962      1.63754119546416      1.21595716409720
  C   3.94880466568811     -0.33517663996514      0.68753101491484
  C   4.01307533912475     -0.84078051189697     -0.59476445127973
  Br  3.91217079998771      0.33659240503613     -2.10987627081993
  C   4.18944807225641     -2.19755313411158     -0.81579658117756
  N   4.28221723231214     -3.03835482941854      0.22100830746812
  C   4.26528795144805     -2.55353038562592      1.44646688669022
  O   4.45905943339279     -3.44483110124484      2.46150186079299
  C   4.58648886804939     -4.80213654619992      2.07530286628029
  C   5.86251938041498     -5.12204592392024      1.27013340096754
  C   5.61453683185111     -5.71545689042321     -0.14721378381778
  C   5.83826388635866     -4.76446751907350     -1.36162928610686
  C   4.54821344009691     -4.34096610715286     -2.09845690058290
  C   4.34120872393481     -2.83081179856623     -2.17731368130658
  C   6.43541924194560     -6.92303487509056     -0.31394348092577
  N   7.07935977717263     -7.86426060988781     -0.44344378370074
  C   4.09090645174901     -1.20737220365947      1.74868589479792
  H   3.70117547622520     -5.10240094349662      1.50927330356350
  H   4.59389330423126     -5.34281590691627      3.02068712893410
  H   6.46398813154533     -5.82852969946499      1.84353773286089
  H   6.45263107486597     -4.21098897235806      1.17668809789499
  H   4.58036131856583     -6.06763706368688     -0.18352669213057
  H   6.50733811042936     -5.25816315238871     -2.06759409104419
  H   6.36321035754013     -3.88033892270297     -1.00047515706118
  H   3.68302755924144     -4.77797449249023     -1.59796047622689
  H   4.56044583530452     -4.74037369457284     -3.11452384450587
  H   3.46282492616254     -2.59909119555676     -2.78539066202016
  H   5.18219753368763     -2.35504038619285     -2.69236412701873
  H   4.05713416111793     -0.87400009443609      2.77849961046286
