21
Coordinates from ORCA-job 20670optt
  Br  0.83208242343406      1.27931549382193      0.19619565834157
  C   2.53486407341603      0.47152186372486      0.10536722629012
  C   2.72296585066425     -0.87850452647371      0.10149692065736
  Br  1.25666175653357     -2.06644803605103      0.18828881471888
  C   4.05675405071801     -1.48198281584394      0.04110031441960
  N   4.10735420922753     -2.79587989053179     -0.02572764755494
  C   5.24665057339945     -3.53071268243622      0.13466559988490
  N   5.39996194431245     -4.72773432274700     -0.26529920693261
  O   6.26847284903283     -2.98664377268475      0.90094411581752
  N   7.10960248789202     -2.14689685096177      0.13343392302135
  C   6.54786446686869     -1.06337488052738     -0.22568862067061
  C   5.18447496260638     -0.58880337520463     -0.03542316023289
  C   4.97648181986103      0.78193627768469     -0.05835658484754
  C   5.83664760958518      1.92040277861834     -0.15483598926385
  C   4.99227621581382      3.00478568611506     -0.11588354737853
  N   3.66334339448262      2.67262909263652     -0.00843988282277
  C   3.65194200158840      1.34620953082254      0.02732099091808
  H   4.53866231361654     -5.00316489988544     -0.73431832562634
  H   7.22230659644809     -0.39124189132263     -0.74993454180010
  H   6.91307868117047      1.93362108183353     -0.21476334970275
  H   5.27555171932849      4.04796613941283     -0.15614270723646
