23
Coordinates from ORCA-job 20687optt
  Br  6.55843640567914      3.26982274181821      0.59482502386231
  C   6.18329164167603      1.40706094696192      0.60705886302851
  C   5.05169412650063      0.89968898407813      1.25065746464234
  Br  3.62228820469614      1.97648310805526      1.83719724793513
  C   5.28447435357533     -0.35469647940992      1.93733917342888
  N   4.96762780008371     -0.53914627974407      3.20500332528912
  C   5.93520612779478     -0.83735076731015      4.10242325787085
  O   5.77065382306346     -1.27304579126024      5.22505574300741
  C   7.40327713650690     -0.50257370561286      3.65348279633925
  O   8.26976898363708     -1.35062361396734      3.67768303004608
  N   7.58453165052158      0.77438623832877      3.21289617849958
  C   8.78848745465829      1.30093055550476      2.65656357418410
  C   9.12075363793570      1.25933022328021      1.34868450673310
  N   8.50269338452345      0.58529063793073      0.33158623015992
  C   7.19901499235809      0.49442065029723      0.22843820949739
  C   6.59199213901873     -0.85801390959126     -0.04483215411416
  N   6.01107020382830     -1.25808158784147      1.24131700984002
  H   6.76374004065331      1.36512816100515      3.20619828749371
  H   9.49523924406951      1.72626635796744      3.35791163409820
  H   10.09268476770082      1.67815608076380      1.09966234017910
  H   7.35816306199420     -1.57482520777852     -0.32556380332076
  H   5.79386753583179     -0.82312480178374     -0.78999862374645
  H   6.50104328369284     -1.95448254169203      1.78941068504629
