21
Coordinates from ORCA-job 20691optt
  Br  1.03705482357363      0.03374890805150     -0.10309385028595
  C   2.92954115802343      0.00593757745723     -0.09744507339929
  C   3.66221301723072      1.17030218120718     -0.09533029411822
  Br  2.82325738045961      2.86010883506827     -0.09597918871428
  C   5.09740392251652      1.16027790692315     -0.09267028923587
  N   5.75401645893657      2.31922572960343     -0.09099495397658
  C   7.11013542469954      2.32732360022193     -0.08907818424065
  O   7.80636121221466      3.33031786884193     -0.08755894466216
  N   7.76153254187826      1.08059178784680     -0.08899649079107
  C   7.15409854457889     -0.13320966157727     -0.09067632326034
  C   8.00989758958723     -1.27205174710860     -0.09116273930538
  O   9.24600320120403     -1.18003310850700     -0.08994404805203
  C   5.72304740356318     -0.12990714716370     -0.09235436487722
  C   4.95198290319709     -1.28927062574505     -0.09352872144996
  C   3.56592813054461     -1.25705878442284     -0.09601317269721
  C   2.84165706845500     -2.48481040909628     -0.09662249371357
  C   2.27154737615859     -3.54255991486190     -0.09695813516098
  H   8.77352764877123      1.08696672390127     -0.08801916835046
  H   7.52749269770538     -2.25872894150762     -0.09298173712427
  H   5.42810490753667     -2.25980486857238     -0.09246334391223
  H   1.75219658916510     -4.46936591056007     -0.09712848267225
