21
Coordinates from ORCA-job 20696optt
  Br  0.98161418200273     -0.32798780764199      0.09702921939765
  C   2.85177317198837     -0.14183560176029     -0.05234804769449
  C   3.44625516541531      1.06225966109037     -0.25721207878151
  Br  2.41757578579643      2.63379268023491     -0.45352388596207
  C   4.89142949306202      1.22949056840387     -0.32703953566096
  N   5.33607111322505      2.45195814131400     -0.58019948959156
  C   6.55611031931329      2.94764754019133     -0.31465948949690
  O   6.91577922782279      4.06975190003252     -0.62539298728428
  N   7.49518120113498      2.18368000138510      0.47856731118032
  N   7.95010658969038      0.97473143458020     -0.00145661294848
  C   7.12611113395503      0.05799340189661     -0.31085704343006
  C   5.66328974461177      0.03424864114762     -0.20623855017120
  C   5.05518713376799     -1.20516356213950     -0.05215057852178
  C   5.83485471187306     -2.39609541683730      0.01342490428431
  C   6.45330715480298     -3.42683369118968      0.06892293244206
  C   3.61728037255626     -1.37468264519197      0.06157128814403
  N   3.00686508977133     -2.50726825876416      0.24333746509543
  H   8.30116341258592      2.78223696015334      0.59727158162161
  H   7.59316562957151     -0.86279439952372     -0.64236112152800
  H   7.01504541604412     -4.32782424356220      0.11550035824053
  H   3.69583395100853     -3.25630530381904      0.29181436066534
