20
Coordinates from ORCA-job 20709optt
  Br  4.58788915987843      2.68920528182740      3.08379945719336
  C   5.50063331653193      1.88218730922378      1.60101195251664
  C   4.96884530842021      1.97710830851103      0.32188349666084
  Br  3.37691824817208      2.84966215043553     -0.14866094761207
  C   5.68552444114328      1.27844585021320     -0.69243856336993
  N   5.37543537266103      1.15264543036563     -1.97101577421631
  N   6.35099126044269      0.43665249147375     -2.54857856583570
  C   7.25811852677071      0.12764544490115     -1.64938543304171
  N   6.87150391072901      0.63709509655355     -0.40640581013428
  C   7.39065603050353      0.72064761324129      0.94946441829561
  C   8.38747494467492     -0.29875862367268      1.45513654249144
  N   8.93790058084375     -0.89180397515100      0.26746436134407
  C   9.68694391395617     -0.13192329408801     -0.38863623182589
  O   9.71710797462438     -0.28252009331932     -1.73116988413555
  C   8.44576972334210     -0.60122553472708     -2.21965781680255
  O   8.37115589512604     -1.30256539556280     -3.17187384411296
  N   6.60514877285608      1.26536278784530      1.89645582897134
  H   7.89667497214356     -1.06746642988596      2.06023956414449
  H   9.12472762342633      0.21173647115196      2.09044238545744
  H   10.24558002375364      0.73086911066327     -0.01907513598826
