23
Coordinates from ORCA-job 20706optt
  Br  1.12031941690697      0.03937161281930     -0.25372118343323
  C   3.02396246370427      0.06666896469957     -0.14191258573114
  C   3.69928373294412      1.29993574872613     -0.02516784248903
  Br  2.88812958915917      2.98489125612510     -0.23329106743756
  C   5.12258332847892      1.24843693509093     -0.00304972505482
  N   6.08192048809981      2.16011490443200     -0.03974664231905
  N   7.28804935805941      1.49380505536480     -0.01822742720716
  C   7.03271468359478      0.21366262875495      0.02912319847691
  C   7.92129174337186     -0.98520524156816     -0.00039210612003
  C   7.10630937642979     -2.22149588414165      0.42027282332234
  C   7.84480004088992     -3.49868427836757      0.03757090631063
  C   7.24535693280698     -4.69833414948263      0.61842479438579
  N   6.80184412371903     -5.64459010873203      1.08817860374032
  O   5.85180588969766     -2.27265691124345     -0.23048255784858
  C   5.02912846932106     -1.21966129680407      0.16403173450005
  C   3.65412745692829     -1.16786534226496     -0.08162397511288
  N   5.69762393201197      0.00732844624714      0.04337137632597
  H   8.77285908751560     -0.85458918108172      0.67043530336468
  H   8.31283553083916     -1.13910409336304     -1.01146858269710
  H   6.93676145533207     -2.19151431146741      1.50409845803293
  H   8.88379853614846     -3.44245851833403      0.36678496985037
  H   7.83464982482585     -3.59289290781519     -1.05001455941768
  H   3.08484453921468     -2.08316332759396     -0.13119391344169
