25
Coordinates from ORCA-job 20704optt
  Br  0.43208949376019      1.97676535633263      1.77565389247814
  C   1.93101570294596      1.88771836989237      0.49242379510836
  C   3.20898767748176      1.60560570306256      0.91518038160351
  Br  3.61413166835013      0.42804218095602      2.39395367528872
  C   4.21794616144612      1.92601946618064     -0.04585177347514
  N   3.95003504141894      1.99168378804983     -1.33970024093849
  N   2.70714642711697      2.10411205357766     -1.75936268411300
  C   1.74099905279212      2.30385858677038     -0.79717165763563
  C   0.69425765651465      3.28231349838001     -1.20862583719847
  N   -0.34254300311311      2.98193614384196     -1.85483226170796
  O   0.98462292988876      4.60188838220637     -0.93515613670884
  C   1.87318957651928      4.97396278491148      0.12648933881208
  C   3.37112269171488      4.89091883533448     -0.21106465872422
  C   4.21632652162627      4.49719682294876      1.01278102301525
  O   5.46013963676187      3.85145164464090      0.71908395249984
  C   5.52235015043926      2.52688727772229      0.33922110353830
  N   6.63494875743623      1.93870638648203      0.28243913016481
  H   -0.87062868991560      3.83244102743608     -2.05538891329113
  H   1.58570664086815      6.00191445518370      0.34814730946628
  H   1.64584602798533      4.37654921003597      1.00969937438585
  H   3.72002487804140      5.84588818233933     -0.60944121076943
  H   3.51179529450613      4.16512541951943     -1.00438472477998
  H   3.63241778201723      3.86577891737624      1.68386433778988
  H   4.51633287358452      5.38510249530853      1.57037378034243
  H   7.37373904981234      2.59013301151007      0.55166900484885
