21
Coordinates from ORCA-job 20703optt
  Br  1.14724461890864      0.08930282220594     -0.05631566689636
  C   3.05653576247587      0.01184885860209     -0.07161995583129
  C   3.71926272586162     -1.19486841897184     -0.07561273695971
  Br  2.83794942907927     -2.86008559757038     -0.07071067158755
  C   5.14497943252975     -1.18812860641551     -0.08302858436635
  N   5.83173034318610     -2.31941982122340     -0.08595181862210
  N   7.18021539231111     -2.17112365717501     -0.09047783871709
  N   7.83084824587510     -3.33571106398752     -0.09205062450202
  C   9.11816845803117     -3.32317839289811     -0.09392400258152
  C   9.97713978247026     -2.13789160397691     -0.09406090186670
  N   11.27429146614375     -2.18629648260389     -0.09414666644878
  C   9.22218526840948     -0.93290618423636     -0.09404858665261
  C   7.84542027483797     -0.93717448876734     -0.09206534477002
  N   7.12647334023792      0.20397075018459     -0.09136097814882
  C   5.79381409833525      0.09176940921419     -0.08639681439051
  C   4.97305036402406      1.23495707769014     -0.08389035371524
  N   3.65301137679028      1.19943210584822     -0.07636833442759
  H   9.58283493912201     -4.30525521622009     -0.09521430068361
  H   11.58140798121834     -3.15758103760958     -0.09400110040825
  H   9.71840663096795      0.02621475602202     -0.09483283884972
  H   5.45103006918405      2.20812479188874     -0.08792187957418
