22
Coordinates from ORCA-job 20715optt
  Br  0.96116132035833     -0.47508014262739      0.44299376587549
  C   2.86233736545027     -0.22855638269870      0.31658184290502
  C   3.63157819876465     -1.14748872284351     -0.37588510014610
  Br  2.95736769204246     -2.69151414218025     -1.21815833750749
  C   5.02580307724417     -0.89669342531581     -0.43213055468404
  N   5.98459332232303     -1.60912633143130     -1.00366503777074
  N   7.12337417422441     -0.92405930693951     -0.72056144105614
  C   6.92317611559502      0.23618046914114     -0.00722273729793
  C   8.01156248795228      1.07413953649641      0.32983556653401
  O   9.19832467591443      0.80464513247185      0.10255779620708
  N   7.67496099478039      2.27284287026945      0.99331801085609
  C   8.73617357609271      3.22256790667857      1.17933727493542
  C   9.06280015548164      4.03475847500323     -0.01361862924093
  N   9.29847917391319      4.69791895824496     -0.91865357394300
  C   5.52267510182957      0.28359882148719      0.22653183740434
  C   4.62771371726769      1.10185618476722      0.89947186872114
  N   3.30919955256879      0.84619151859193      0.93401181749579
  H   8.00779084870592     -1.21590813436823     -1.09640415554483
  H   6.77259975685060      2.65700390421085      0.75053686856732
  H   9.63365275922999      2.66806131422991      1.45044751518602
  H   8.48721904144618      3.91181905782752      1.98689129826926
  H   4.94445689196406      1.97584243898445      1.45678410423422
