20
Coordinates from ORCA-job 20722optt
  Br  0.86562635869506      1.09764733726742     -0.11889079432259
  C   2.63618732101336      0.41658687808955     -0.06293751092897
  C   2.88680641190297     -0.94627048963237     -0.13691919921820
  Br  1.49517847720798     -2.21126435949670     -0.23515224456409
  C   4.22508497347913     -1.47766069343217     -0.06072914789134
  N   4.40852401766399     -2.75421141639614     -0.04445683988133
  N   5.61895650619258     -3.35165102441442      0.23773830986738
  C   6.92345919223284     -3.05829141307546     -0.00387862092047
  O   7.78847184397906     -3.92075670716739      0.06497324350840
  N   7.26743596298479     -1.75964304048990     -0.31107472784301
  C   6.58995589782539     -0.58215883812064     -0.10119810767513
  N   7.21365721040947      0.55544560755896     -0.06055958632921
  C   6.23858347884803      1.55484468638704      0.07794295343900
  O   6.44997201711468      2.76215131361029      0.15468876064423
  C   4.95179758545319      0.88442117686594      0.09432850144434
  C   3.66279048490837      1.35011740097885      0.06600259976784
  N   5.22439035592359     -0.49161649269260      0.01076164315550
  H   5.50096421877974     -4.34253807246198      0.37148777079494
  H   8.26456005607295     -1.62749470910955     -0.39254615771988
  H   3.47959762931281      2.41234285573128      0.10541915467259
