19
Coordinates from ORCA-job 20723optt
  Br  1.08566747376735      0.04295064475021      0.07565628947860
  C   3.00471609039544     -0.04239608005974      0.07072011641775
  C   3.63975399131510     -1.28371278645610      0.07001024682736
  Br  2.75470120234143     -2.94821856310985      0.07269152828894
  C   5.04275028364445     -1.26116856116579      0.06750223972311
  N   5.94274312654252     -2.23983045178865      0.06669781672338
  N   7.12232245174348     -1.54385497854390      0.06477710338719
  N   7.03847222068362     -0.18886678371933      0.06404614213326
  C   5.70748836410243      0.00781092203386      0.06572094520580
  C   4.94647932166055      1.17512554018812      0.06607521729715
  N   3.60633074682364      1.12346199946203      0.06866775829773
  C   8.28196308780125     -2.22986858678121      0.06462245947104
  C   8.55120228415466     -3.54520122809029      0.06514563486809
  O   9.94646512763278     -3.67176953391104      0.06519606362773
  C   10.47239083171946     -2.44026447470315      0.06466097687747
  O   11.63192325645854     -2.17087507951957      0.06460283778377
  O   9.46410678238104     -1.52959821866995      0.06420243657785
  H   5.40642200547353      2.15454129911306      0.06437092197783
  H   7.94410135135867     -4.42626507902868      0.06563326503596
