21
Coordinates from ORCA-job 20724optt
  Br  3.61486629768085      0.73243564793320     -1.98623109206965
  C   3.33975987164301      0.58631916068236     -0.08888412548614
  C   3.29097152467092      1.80771377155721      0.90958805784139
  Br  2.27854299627427      1.70269677416454      2.62800499053310
  C   4.69688167748118      1.39848769199465      1.15017814632695
  N   4.43295227322320     -0.07889727902788      0.63045964015104
  O   3.23024982731815     -0.86341349302484      1.30093449360164
  C   2.32732685536201     -0.26726093427934      0.44255519583078
  C   1.04221815055238      0.08171618024262      0.29547681556784
  C   0.78678787586084      1.38143194017492     -0.40928061668250
  C   1.49929205783744      2.53723737887084     -0.52059961196755
  C   2.81076374325609      2.99437069506315      0.16899653597346
  N   3.91365784325433      3.54754471551885     -0.61423519820704
  C   5.10710619373449      3.07023893758911     -0.36321416258285
  N   5.59478143876753      2.02239187919198      0.36538066365658
  C   6.17112021386719      3.77257474268644     -1.08663157853034
  N   7.00430943957190      4.32920161351865     -1.64584616125854
  H   0.21070879616757     -0.41503779545851      0.77484908690789
  H   -0.18263432651508      1.42097567559633     -0.89898376842847
  H   1.02519980637756      3.32139574039577     -1.10315608382522
  H   2.49313744361409      3.78587695660994      0.85663877264761
