20
Coordinates from ORCA-job 20732optt
  Br  1.02803622463824      0.08765227793330     -0.01029208586506
  C   2.91062395419580      0.01816951268483     -0.00277174388100
  C   3.67454877554120      1.14850995659612      0.00204072024202
  Br  2.91693193345960      2.88153389077874      0.00394701094511
  C   5.09800334167763      1.06601406898733      0.00535347848405
  N   5.81382178678419      2.20017976073094      0.01006084590861
  O   7.22818626348579      2.01409268835772      0.01308034572676
  C   7.77629415855216      0.80010965141191      0.00735087868706
  N   9.16102859275633      0.85797861875128      0.00829632606442
  C   9.92018272176046      1.99491804608640      0.01191274815081
  O   11.12897554319095      1.97183489901832      0.01238455330011
  C   7.06545426112135     -0.34019137173249      0.00167110166448
  Br  7.93034702788877     -2.01284023968191     -0.00705842596525
  C   5.61475290739903     -0.26989045453374      0.00195987139845
  N   4.90178702745957     -1.35801002354830     -0.00136581513683
  C   3.52019475660523     -1.30494372585217     -0.00266514348405
  N   2.79001370889569     -2.37656281087154     -0.00431417445849
  H   9.65331230264929     -0.02552705795537      0.00535855274614
  H   9.32736359229943      2.91525465054887      0.01404098734151
  H   3.43014111963924     -3.16928233771026     -0.00399003186885
