25
Coordinates from ORCA-job 20748optt
  Br  1.08374860248330     -0.15363264163720     -0.99822729062835
  C   2.91031477438698      0.05037510736185     -0.42833769638264
  C   3.35511085107853      1.21822425069958      0.18931556095041
  Br  2.18098350280533      2.67554843647273      0.54626837503924
  C   4.67258847803783      1.28366843711732      0.57075256217844
  Br  5.87080283185873      3.39849640374243      0.26983682748282
  C   5.50111839643225      0.18119263351045      0.35751731756204
  C   6.94694846272467      0.20118516296850      0.78526638114131
  C   7.61663188849265     -1.18006302380298      0.70585836572752
  C   7.26366851772693     -1.83882134521724     -0.62389014782041
  C   5.77722983751522     -2.16058010112729     -0.56730616624961
  C   5.56512875653941     -3.20950479886560      0.51095616437539
  O   6.15353647997906     -2.87096927844757      1.77169728346537
  C   7.19429475490064     -2.02440621449898      1.89746569430656
  O   7.73433177740829     -1.93787692095389      2.96493739337103
  C   4.95632232586305     -0.92303994568393     -0.28219464622408
  N   3.67525501953766     -0.98354145549618     -0.67003058485359
  H   7.02566754183990      0.60901627669865      1.79368868703276
  H   7.48559481643772      0.89879221358510      0.13810463766522
  H   8.69208274851943     -1.04982693525592      0.82165474588232
  H   7.84334901539664     -2.75232312309573     -0.78248833649396
  H   7.48548939077034     -1.15042627432061     -1.44168714833720
  H   5.41718957502542     -2.58782016059442     -1.50485726852178
  H   5.99858781196022     -4.16432568748888      0.19774345317406
  H   4.50302384227936     -3.35034101567014      0.70595583615711
