25
Coordinates from ORCA-job 20749optt
  Br  0.97480698684690      0.06985919508153     -0.11755275543316
  C   2.89838939682252      0.02637884151638     -0.06298091286265
  C   3.63091837104837      0.98052700669625      0.63622839367120
  Br  2.78445100902596      2.33902992140078      1.67188556538047
  C   5.00411359888254      0.90376225812280      0.58960277152886
  Br  6.24970992181326      2.99427494221983      0.39955958268679
  C   5.59567783607762     -0.14791839310664     -0.10054231182625
  C   7.11004006308740     -0.28951770100652     -0.18959848214800
  C   7.71007317402558     -0.47246296190724      1.13222828401110
  C   8.21201872418793     -0.67560258591864      2.20201179156662
  C   7.51320751187751     -1.46207705174902     -1.10566785107328
  C   6.65049351058520     -2.68137885448268     -0.80287102633613
  C   5.36814092993528     -2.22306652110364     -1.50171550676871
  C   5.95539884571446     -1.70506963337857     -2.81789950855584
  O   7.22265750637955     -1.15094346898770     -2.46556027942977
  C   4.76850173024349     -1.07153064444548     -0.73166901200754
  N   3.43615330113144     -0.96718945515916     -0.72975253774702
  H   7.50093918282720      0.64024291751480     -0.61480019320434
  H   8.64394728831937     -0.81444647887185      3.16273865042972
  H   8.58466917878717     -1.64057304073827     -1.02287556360905
  H   6.52572323462766     -2.85003182081897      0.26579689959663
  H   7.06129742002775     -3.57632670651229     -1.27342917157748
  H   4.61916470476656     -2.99770490005148     -1.65243373612859
  H   5.33831935785413     -0.93083638139187     -3.27520249797868
  H   6.10418721510496     -2.51939848292234     -3.53550059218487
