22
Coordinates from ORCA-job 20744optt
  Br  1.19527884909313      0.13353172728166      0.33761367747192
  C   3.10208019810689     -0.00610905454080      0.19119349255040
  C   3.72209076979561     -1.21300192743258     -0.14781311516029
  Br  2.72161523058578     -2.80449151428114     -0.45103971378269
  C   5.09922666251240     -1.26303125706566     -0.22958265008829
  Br  6.34857375304737     -2.61407418806144     -1.86899108113682
  C   5.77708775750023     -0.09501777061205      0.04344227996002
  C   7.24861538916338      0.22725664159450      0.03320533469553
  C   7.64255138511040      0.84502513815562     -1.31731984471854
  O   6.87695118649294      2.01475677840910     -1.65700150429793
  C   6.36978165287052      2.84034446469032     -0.70463891336085
  N   6.13195524029341      4.05641213002698     -0.92851778573885
  C   6.03043631579799      2.19663287677316      0.62677487373895
  C   7.27499370618142      1.38684898901096      1.01692806017581
  O   8.07111402827832      1.63317999759242      1.87483859594568
  C   5.06662065042531      1.04888391779836      0.37717168442839
  N   3.74726518495806      1.11578686436108      0.44758189329229
  H   7.91420160201908     -0.59799094329666      0.27414532834199
  H   7.46323873715419      0.12035157566348     -2.10905195138441
  H   8.69784361262239      1.13050447840861     -1.29784062413508
  H   6.41601648501617      4.29023577116206     -1.88014784113053
  H   5.71546160297487      2.95196530436200      1.33804980433331
