20
Coordinates from ORCA-job 20745optt
  Br  0.99052338503006     -0.09256246886577     -0.04299230774191
  C   2.88231213367844     -0.15152202748580     -0.04191522431900
  C   3.59063078553961     -1.34988897594915     -0.04725942572923
  Br  2.63064630366099     -2.98855646751912     -0.06215081873267
  C   4.99156283921229     -1.35044488310529     -0.04386286762399
  Br  5.87527215171980     -3.05104538025177     -0.04593008881402
  C   5.72023674962118     -0.15192390335629     -0.03839301070609
  C   7.16965370694373     -0.01219492194647     -0.03654135085619
  C   7.90105816244921      1.16261174511012     -0.03496443588894
  S   7.24671628298347      2.76761853853324     -0.03338927836827
  C   5.57476288338895      2.34799537664945     -0.03276366155710
  C   5.00480759263746      1.09113681855607     -0.03553081116718
  C   3.51790878039989      1.12415371585014     -0.03535859943812
  O   2.90432946273598      2.20159671165816     -0.03059943194206
  N   9.24458034773503      0.93325916222691     -0.03488465227679
  C   9.35497892992807     -0.37134816671401     -0.03611990237778
  N   8.14924468486093     -0.98172747950462     -0.03718164602343
  H   4.89885709062685      3.19109478603274     -0.03070613360822
  H   10.27944950250964     -0.92615810279630     -0.03638214556790
  H   7.97546822433836     -1.97209407712223     -0.03807420726111
