23
Coordinates from ORCA-job 20752optt
  Br  1.51211263094010     -0.89208623211561      0.07981279123789
  C   3.32287221003531     -0.36316364788254      0.02682692336855
  C   3.68319500835414      0.95952726752246      0.00536759413256
  Br  2.37842892344863      2.33051502498167      0.01365490212258
  C   5.05886416195512      1.30152290417242     -0.01299014793693
  Br  5.62191805384852      3.11325754878916      0.01284726247779
  C   6.04432245385931      0.33984439468537     -0.02542521781315
  C   7.48473157228112      0.59439873092182      0.01031748687272
  C   8.18606672012047     -0.00980046737073      0.96458086113721
  C   9.45700305254145     -0.67203901625023      0.59871490159168
  N   10.66787772697174     -0.31798069262869      0.82011428443746
  C   9.10773846515707     -1.88781352173137     -0.11562651252301
  C   7.86186236023584     -2.35934030229251     -0.48526672301780
  N   6.54543075541469     -2.07785134819486     -0.33817155851058
  C   5.73194511676102     -1.05797657939729     -0.11047783007272
  C   4.29288485332348     -1.44187070158989     -0.01216331172533
  N   3.90154181938807     -2.67357847351415      0.02254834590725
  H   7.98070079627320      0.98011478064756     -0.87661007094802
  H   7.65548306243625     -0.44134453707665      1.80889821667599
  H   10.67088288626776      0.56116834644315      1.33579191005102
  H   9.94046050583447     -2.53811245244402     -0.36148927971137
  H   7.95847346924457     -3.31424799427480     -1.00652083571660
  H   4.74620339530761     -3.24514303140025     -0.04973399203720
