22
Coordinates from ORCA-job 20758optt
  Br  1.26310035430933     -0.11439284594530      0.05116452258867
  C   3.17756243425918     -0.16498220850259      0.11464755008008
  C   3.87883637370024     -1.36465661164135      0.02431090825958
  Br  3.00155419176074     -3.03764858699901     -0.16384994488360
  C   5.25368573729142     -1.30831978408834      0.07944507007015
  Br  6.57013680675162     -2.76320248514776     -1.44376510458217
  C   5.86707812918014     -0.07681412031771      0.24434299845808
  C   7.37516149437079      0.04783043422075      0.21118430983832
  C   7.82598376997547      0.79450192873254     -1.04350005560560
  O   7.65153866102720      2.21067317058955     -1.07025307042391
  C   6.60182775869258      2.94274161299575     -0.64555869690231
  O   6.48747483203596      4.05349366301355     -1.07994841277699
  C   5.68569831715609      2.43641339507990      0.45516313488811
  C   5.07976773035682      1.06504524822919      0.30235143583137
  N   3.74909344000567      1.01115232916908      0.23870755246146
  C   7.96418831464087      0.63082159505198      1.41922076562367
  N   8.44130242610783      1.10849497108879      2.34639764171940
  H   7.77075435138973     -0.96583258379758      0.10551198701088
  H   7.30109509657833      0.34280548937883     -1.88665082548633
  H   8.89728324369113      0.66249541765403     -1.18349881499728
  H   4.88333122207491      3.16338614735867      0.53195514993359
  H   6.27454531464385      2.47899382387701      1.37762189889483
