24
Coordinates from ORCA-job 20753optt
  Br  1.37360195501684     -0.34325086876022      1.04322480207767
  C   3.09429716740465      0.01416602729662      0.34805812470710
  C   3.69768336556622     -0.83843356021910     -0.57693804094780
  Br  2.65941835131523     -2.04423778670154     -1.61552182474219
  C   5.08031012227552     -0.73310188166672     -0.77921878544566
  Br  6.05811857240584     -2.10085515902832     -1.71974712738799
  C   5.78795986190312      0.31139675543013     -0.24857084860387
  C   7.24134306597904      0.27346018210226      0.13195430606637
  C   8.19289918826807      1.00880161075473     -0.82197773112200
  C   7.88381558936778      2.48141697978179     -0.89032962266649
  O   8.73278144902109      3.32688349268966     -0.74108423724777
  C   6.44395787890759      2.85739271100588     -1.18266704955599
  C   5.45286770187939      2.69940799406629     -0.02067476097720
  O   5.06251180063047      3.69041045141216      0.56762694139324
  N   5.02232722138669      1.42049877958708      0.22102966160816
  C   3.77476125156108      1.14846303215575      0.91356146667813
  N   3.31548226924210      1.86837666208928      1.86669616101092
  H   7.56779871196341     -0.76379767549611      0.19979431162867
  H   7.33853258929861      0.70920540143467      1.13224010419639
  H   8.06497905406193      0.58709170459607     -1.82500851767436
  H   9.23361891235513      0.89050001645929     -0.52098380875766
  H   6.08927758875204      2.23338382166448     -2.00809195286194
  H   6.42137849347090      3.91076861878996     -1.44792573864431
  H   3.93827783796718      2.64805269055591      2.04755416726861
