24
Coordinates from ORCA-job 20750optt
  Br  1.76691725048665     -0.94390324462784     -0.49232603433967
  C   3.58719118368517     -0.46934376307961     -0.29367641383487
  C   3.96804329520978      0.84336428748274     -0.17442406886880
  Br  2.69601654285035      2.24582036038839     -0.22094502183194
  C   5.33746751298689      1.15683191501219      0.01531496687214
  Br  5.94187307697907      2.95004741127487      0.18408784094397
  C   6.27778740415867      0.16213836383701      0.04795830024240
  C   7.72493700395764      0.30848526296168      0.20567773525377
  C   8.31306679935963     -0.13450416998029      1.31533685374548
  C   9.52878099225865     -0.91871912105342      1.16836752790313
  C   9.47942995093174     -1.91087052309264      0.27062923969489
  C   8.34129520959390     -2.43988324743479     -0.56401589689935
  N   8.66611621627875     -3.36159553858103     -1.43118700545117
  C   6.89631296343393     -2.22107791196543     -0.46000670474868
  C   5.95823819441062     -1.21279166374286     -0.17409632851644
  C   4.52192625516675     -1.58208442708854     -0.21366002481943
  N   4.05603016999919     -2.79096094402479     -0.15750454234376
  H   8.31688861494183      0.38432312861995     -0.70411383740357
  H   7.74668894786081     -0.19885781146896      2.24048688256441
  H   10.40912359281500     -0.79086308649890      1.79016397076238
  H   10.37453558578239     -2.51668368913283      0.14866067758706
  H   9.67122098520863     -3.52267200889008     -1.41322462120504
  H   6.43270464925868     -3.09087671333242     -0.91178705683721
  H   4.81840760238517     -3.44932286558240     -0.02671643846972
