24
Coordinates from ORCA-job 20756optt
  Br  1.30548857284973     -0.36000603674166      0.97327491926661
  C   3.01748716317828     -0.00676518035141      0.25658973893535
  C   3.60870257851054     -0.85926074883707     -0.67716372031085
  Br  2.55600226434624     -2.07334677994834     -1.69011362715321
  C   4.98959854903318     -0.75985936661418     -0.89877289457668
  Br  5.94856985984464     -2.13706069669064     -1.82881426799123
  C   5.69985559038693      0.28945167873665     -0.37684318803504
  C   7.14843746811163      0.22733310081365      0.03519502336375
  C   8.10236195821068      1.02745401522217     -0.82910200936605
  O   9.04826581800680      0.51868356345113     -1.37914565741304
  C   7.82672419592345      2.50939088118686     -0.94616098997566
  C   6.36829584388430      2.83060417008507     -1.29319147661454
  C   5.37917902417443      2.67675382934694     -0.14537165228234
  O   5.01383686115069      3.66616958104421      0.47121563809484
  N   4.93911218019549      1.40075291526186      0.09652669792851
  C   3.70467980997228      1.12871367675456      0.80991792738452
  N   3.25805431345860      1.85171662214597      1.76779786281816
  H   7.50451504526337     -0.80024140315841      0.04507841855254
  H   7.22049805046132      0.63457432864814      1.05300805859321
  H   8.50168026644859      2.91202171498206     -1.70034888973073
  H   8.07658639035500      2.97466654876869      0.01395800666747
  H   6.04959950407998      2.21407406003032     -2.13661463755267
  H   6.30031117572495      3.88052935890259     -1.57328087544381
  H   3.88315751642882      2.63265016696083      1.93436159484091
