20
Coordinates from ORCA-job 20766optt
  Br  1.39592490805548      0.84553035514897      0.51618888173727
  C   3.08539661905352      0.12185467295605      0.16579470601988
  C   3.35890009987204     -1.20388776364827     -0.07408488446579
  Br  1.91939256274501     -2.42812152561830     -0.17231948450496
  C   4.68761590910342     -1.65967912272396     -0.21122036357003
  Br  5.10353557458358     -3.42777752299404     -0.74262418058116
  C   5.76160325563452     -0.79539150417090      0.00949140012558
  C   7.17132336073499     -0.93792975463386     -0.10302989168123
  N   7.84509952444349     -0.15273574432283      0.74639156653363
  N   8.49596179654897      0.88445966124611      0.03024780574360
  C   7.67509132966374      1.97530714547289     -0.18940700884912
  O   8.12509638227789      3.07098717224378     -0.49786496924524
  C   6.21505256344956      1.75968477366373     -0.02023921247883
  C   5.44062693594895      0.59965306789414      0.15232127569240
  N   4.14312699293012      1.01479873057031      0.20224426071959
  N   4.01830816027978      2.36010275992655      0.10947909017040
  C   5.26336634474183      2.79047721931358     -0.02537441481152
  H   7.61111091191595     -1.34568882756736     -1.01865337048519
  H   9.41991212965408      1.15156145114283      0.34627541631727
  H   5.45955463836300      3.84679475610055     -0.11961662238657
