20
Coordinates from ORCA-job 20768optt
  Br  1.26345136498672      1.00724430478550     -0.88440333511834
  C   2.84208773594941      0.31984392149440     -0.12152478903609
  C   3.88991414435517      1.04900739558799      0.33785325855180
  Br  3.71833942269846      2.92561536355862      0.55564897781205
  C   5.08251154717692      0.36660961029503      0.61458881606516
  Br  6.30611444059682      1.13621822060390      1.84846712668870
  C   5.22624289156044     -1.00318105132335      0.22256789623200
  C   4.07719056377806     -1.72748374778962     -0.14360998247712
  O   2.87480476567293     -1.02462954410104     -0.17176456639121
  N   3.85590683742725     -2.94949500432477     -0.51848206225142
  C   4.65689134095348     -4.02880455377646     -0.36919803858499
  N   4.36218559453502     -5.20497782166848     -0.78978884734598
  N   5.87148772917215     -3.97873394866316      0.35550386029219
  C   6.84138332765434     -3.02969332309512      0.45020463484402
  O   7.95544191550378     -3.34375541585748      0.82711056681841
  C   6.55999148043975     -1.57846790315467      0.09174840502811
  N   7.56134257843324     -0.84962598372766     -0.21241838064069
  H   3.44995014778643     -5.15277560009729     -1.23379736716068
  H   6.23170275376589     -4.90972891879041      0.52382270224477
  H   8.40805941755366     -1.41618599995590     -0.13352887557069
