22
Coordinates from ORCA-job 20777optt
  Br  1.28981764859915      0.63431954286934     -0.27696450247857
  C   3.16934284677061      0.33310209764285     -0.06008988124998
  C   3.68784722908841     -0.93703521621413      0.18603026880574
  Br  2.57072039562054     -2.46516960359282      0.37540734790321
  C   5.04683778095107     -1.06093129522732      0.30479835343426
  Br  6.34092395421331     -3.11133489584852     -0.46281751382609
  C   5.86185890653440      0.05143899710383      0.19938754013766
  N   7.26885553833478     -0.04346606620332      0.29646458073592
  C   7.87144968741352      1.07270896072145     -0.37173574257478
  C   9.33414875207136      1.41565570437888     -0.17507904697505
  C   9.30566463293811      2.92603711661222     -0.40244786607426
  O   10.20727029382148      3.64943411409772     -0.68823848676191
  O   8.03639026946427      3.38780384579053     -0.22391823256501
  C   7.23721671391092      2.31167633209981      0.23168951995188
  O   5.91996444285244      2.46976497629299     -0.16648249497582
  C   5.22134345383459      1.27918650854571     -0.03877362404565
  N   3.91829139594542      1.40511858650192     -0.16524832028748
  H   7.56535682886812     -0.97365289809117      0.00514297766110
  H   7.63995647022306      1.09932255851041     -1.44788719492452
  H   10.03859374622792      0.94245191248530     -0.85320897972851
  H   9.64417006293620      1.22336338243089      0.85616291110398
  H   7.29197894938018      2.26920533909342      1.32680838673386
