22
Coordinates from ORCA-job 20779optt
  Br  4.55184031321658     -1.54449775282428     -3.16574626026336
  C   4.88962275539663     -0.72859272044851     -1.46059889452068
  C   4.63380875399144      0.63621697686129     -1.23276648022739
  Br  2.93840959844875      1.43804287560129     -1.86723987210609
  C   5.33867311358181      1.23041392300753     -0.18538445546186
  Br  5.53848545879173      3.16247629816426     -0.05246936984364
  C   6.05384983987166      0.44084854415627      0.67245116131158
  N   7.14041046399888      0.86117984604939      1.47741468211085
  C   8.29765004081860      0.13502867355349      1.27785060091107
  N   8.41299191407866     -0.53510026985637      0.21368451756163
  C   9.14808411912955     -1.68517752062172      0.06011621394789
  N   10.42533908559705     -1.68128085918188      0.01229333578322
  C   8.34394534041438     -2.93320380407594     -0.09359606316344
  C   7.07690375067365     -3.30830811267118     -0.36524897593529
  O   5.88884539448364     -2.75524657876022     -0.68419885900865
  C   5.56627582955270     -1.42578008159241     -0.48169580512413
  N   5.93533631585941     -0.90639876215574      0.66351911038293
  H   7.14598675993268      1.76996657559510      1.90903721411809
  H   9.00115827537459      0.09592616174810      2.11524920099954
  H   10.76618683887658     -2.62386887275823     -0.16801449531428
  H   8.97055589025275     -3.81299024479911      0.01712167376013
  H   6.93464014765815     -4.38265429499111     -0.41577817991814
