24
Coordinates from ORCA-job 20788optt
  Br  1.21131429510270     -0.23191062550821      0.90449959037823
  C   3.02577080612546     -0.17938427529014      0.31672884367403
  C   3.66344945481500     -1.33193767437861     -0.13901860193230
  Br  2.68764616766790     -2.58656658148320     -1.32177654045716
  C   5.06851297730266     -1.31810032930335     -0.24155829339401
  Br  6.08744513689881     -2.93940952616888     -0.47889955732751
  C   5.74227783200690     -0.16553694523915     -0.04852440307646
  O   7.10479215031993     -0.07042963738596      0.07889226796387
  C   7.57689866588345     -0.29482745320737      1.40128345456647
  C   7.03753222088619      0.63043449951599      2.49587752085372
  O   6.89843727814475      0.19297259560659      3.62127232902610
  N   6.79769953116398      1.92970437814985      2.18838226477705
  C   6.94121612856219      2.53167066150196      0.88205491643713
  C   5.75247111857775      2.28431043999219     -0.06948882695423
  N   5.06981991712460      1.02719194396340      0.13670343590040
  C   3.68353680780491      1.06544114930405      0.48545092737502
  O   3.20766889679913      2.13118684231525      0.87463821821447
  H   8.66226172152625     -0.17965804409478      1.35922837901510
  H   7.34161722389902     -1.31106260774856      1.71937361250720
  H   6.27918957106346      2.42683137916068      2.89730101135963
  H   7.86139619339401      2.16174813986877      0.43557298259149
  H   7.05974353136244      3.60684772574854      1.02366339860788
  H   6.12199212140304      2.34770052002852     -1.09810846633424
  H   4.98931025216532      3.04378342465241      0.08245153622812
