21
Coordinates from ORCA-job 20780optt
  Br  1.06450230331005      0.11711412897700      0.25254043528342
  C   2.98359605198024      0.10157286427063      0.10042548281060
  C   3.66205061420758     -1.08362258063996      0.07656237070008
  Br  2.52297922797973     -3.18703283636637      0.56180779159871
  C   5.01950213054929     -1.08284667269090     -0.02445586662348
  Br  6.01855418246354     -2.73769049899258     -0.14817528865608
  C   5.75096310341056      0.09840795399170     -0.08701651723112
  N   7.14743917481537      0.13652459100495     -0.21574165639002
  C   7.92609543152894      1.21860523610444      0.03466474367510
  O   9.13381820134795      1.20258097430113     -0.01259134889849
  C   7.12358950155450      2.45924775595458      0.45862294225441
  N   5.84109898408378      2.47360175787680     -0.22977185085761
  C   5.06833841103717      1.31709847648038     -0.07321731039451
  C   3.67683522848682      1.30683408647585      0.01764757435641
  Br  2.79616283492406      3.00161084612039     -0.00824049547512
  C   7.86088076412391      3.68819699690093      0.18360739257890
  C   8.43271211464270      4.71449766510670     -0.03869865065486
  H   7.62473271264487     -0.74185712707245     -0.37436466686923
  H   7.00397883717092      2.36590246372372      1.55178326620988
  H   5.32516042482639      3.33046776264125     -0.08824521784547
  H   8.95500976491144      5.61678615583174     -0.24614312957151
