20
Coordinates from ORCA-job 20786optt
  Br  1.20430752438499      0.32987675131715      0.22159392770851
  C   3.05013519644294      0.05313410850305      0.03919954366465
  C   3.68358280990096     -1.14510309665924      0.08709846538083
  Br  2.67092141647088     -2.72745518225115      0.27761285521140
  C   5.11063848815088     -1.22693169473973      0.05124205468158
  Br  6.07066543449067     -2.81852463114257     -0.20633959975055
  C   5.74881692892859      0.00786385814177      0.02860266109137
  O   7.08447194669273      0.24326024410192      0.06921807052484
  C   7.24439676642748      1.61935962921894      0.06373714553739
  C   8.44191228204728      2.26545321633445      0.09960743207658
  C   8.44868341376423      3.71096085440601      0.08770572743553
  O   9.50044000176789      4.38063752800706      0.11819565637563
  C   7.13753442008854      4.35596897526464      0.03500219832074
  C   5.95715849659657      3.67266273443963      0.00011411491617
  C   5.98042821002571      2.26001908563718      0.01634899598196
  C   5.05983899476833      1.20638523984661     -0.01022253626414
  O   3.69318994518496      1.25770656646506     -0.09348875770690
  H   9.38190341524929      1.73270887976467      0.13839982153371
  H   7.14999968470577      5.43928331361575      0.02613853608215
  H   5.00997462391117      4.19773361972873     -0.03876631280145
