20
Coordinates from ORCA-job 20797optt
  Br  1.28416698505483      0.43260076079531      1.68441578147669
  C   2.99911406990963      0.29464804479779      0.13649469682470
  C   3.85473159381756      1.36622749029961      0.05758648406716
  Br  3.11013122107197      3.11247061113311      0.04215893586286
  C   5.23548855052492      1.14203389550492     -0.03299472985865
  Br  6.42559183687401      2.60673459085020     -0.22711716877260
  C   5.74164584003325     -0.13982960962153      0.00459593376543
  Br  7.57558722403957     -0.55192826160952     -0.04657472352281
  C   4.86899286612041     -1.27728104266739      0.08152071542920
  O   5.21457931712603     -2.45553205756622      0.11334070269218
  N   3.50643543826757     -0.95979466347186      0.09443757590779
  C   2.59530482671782     -2.10182067094497      0.02149591744623
  C   2.44554692636468     -2.86165049231773      1.30724109006471
  N   1.29657178758408     -3.33823735838279      1.70197953564298
  C   1.47174667254530     -3.96427295103870      2.89544577115658
  N   2.65715915352139     -3.99726133270495      3.43846139042658
  S   3.69602195357939     -3.23860118430751      2.41297467339014
  H   2.97548948260847     -2.78084864793521     -0.74336775767233
  H   1.61286227996320     -1.72845264499496     -0.25137912054041
  H   0.62883197427585     -4.42720447581756      3.39128429621353
