26
Coordinates from ORCA-job 20809optt
  Br  0.83221750919542     -0.14934606086833     -0.28114809240619
  C   2.73520978388671     -0.02217282843384     -0.17501359551592
  C   3.42094450437181      1.18212785400949     -0.29203054958891
  Br  2.48819897011757      2.83137249819486     -0.53630173352737
  C   4.78785160289876      1.16489902250441     -0.23155649868579
  Br  6.22856308126375      3.34155038979662     -0.57612746825307
  C   5.51704266148234      0.00091079838957     -0.05771794449462
  C   7.02739085047322      0.06997447137257     -0.03553373061629
  C   7.58168194807571      0.54077959233243      1.29263900267037
  O   7.30628663304051     -0.48829350872674      2.27609084161683
  C   7.93949666031180     -0.41182290646804      3.43311531228306
  O   8.74382437271908      0.41480484038021      3.75629234734594
  C   4.81798100076216     -1.20656189109772      0.09138694520433
  C   5.58350217266633     -2.50471615129938      0.30092397794541
  C   4.76671385255872     -3.66767809398385      0.63360822983724
  C   4.10745073771114     -4.62880981740358      0.91476414844967
  C   3.43105782666875     -1.20542490804955      0.02392480040672
  H   7.33826061457211      0.80634856656965     -0.77678634302299
  H   7.48026761245644     -0.89030172276181     -0.29087143447680
  H   7.10374458307397      1.46901755460432      1.60460875007381
  H   8.65956305973605      0.69436719067786      1.24976124025283
  H   7.62630680149114     -1.24438359954444      4.07833694214121
  H   6.31607477462367     -2.35714662362943      1.09706559707565
  H   6.15476952967178     -2.73833098894956     -0.60308162186754
  H   3.51482241369840     -5.47487438958435      1.16513185729571
  H   2.88177644247245     -2.13028928803133      0.12851901985668
