25
Coordinates from ORCA-job 20808optt
  Br  2.46798807123507     -1.21152879365407      1.98858296070436
  C   3.78383053044024     -0.33418176332065      0.91752752675756
  C   4.69246984030498      0.54984625841610      1.50955060837333
  Br  4.13820999864013      1.57388233099553      3.03152102829451
  C   5.95703160640712      0.81536621735801      0.94391908224420
  Br  7.38850035721759      1.45579891979980      2.12797375076194
  C   6.28555476834747      0.56426273242302     -0.34638417373509
  C   7.66669522639340      0.49522648389628     -0.94213363017768
  C   8.19591235152708     -0.92604110592095     -0.96152440289788
  N   8.22156025669062     -1.70311496256532     -1.97557595252038
  N   8.65355663976441     -1.37776806985401      0.24477583042968
  C   8.90052153423519     -2.77258897897819      0.41990821952562
  C   9.33319007675969     -3.09933539544439      1.81382557665906
  O   9.46306152786367     -2.29904679673569      2.69811275459542
  S   4.98779017649871      0.16474699645170     -1.46023048191325
  C   3.84153299527939     -0.77583298440603     -0.43046863219070
  N   3.11543147725377     -1.69268940653517     -0.96858755977949
  H   8.34521652824860      1.12979714842620     -0.37202879168464
  H   7.64309604947826      0.85973061723082     -1.97094479221306
  H   7.83728358946294     -1.22730144528343     -2.78569730860699
  H   8.48505373087477     -0.82694865455430      1.07597361264224
  H   9.67703877995375     -3.12560272575732     -0.27002650274959
  H   8.01786028033242     -3.38561374286687      0.18236712646751
  H   9.53266180916770     -4.17450578508095      1.99041377398566
  H   3.37795179762277     -1.83055709404008     -1.94084962297235
