19
Coordinates from ORCA-job 20805optt
  Br  1.06215569883670     -0.09612492304760      0.76464024148439
  C   2.76291777776496      0.12913753014135     -0.09478387038878
  C   3.46230101185475      1.31200002996686     -0.05279429790518
  Br  2.48075469325469      2.94562286701749      0.22635689157815
  C   4.84959883278779      1.34837369637472     -0.20584978593544
  Br  5.72143341835135      3.02232029268800     -0.49351147505296
  C   5.69283271725508      0.21366202412569     -0.19830898792534
  C   7.09578411083299      0.33340446177947     -0.08464982771676
  C   8.29747908429599      0.35896364536477      0.02358745403447
  C   9.75177362634443      0.41474275425097      0.16484936614483
  C   10.36305705251452      1.54620319537234     -0.54219868307252
  C   10.86972741476916      2.47121422639042     -1.10902438047836
  C   5.20175801015139     -1.14453026858707     -0.31321624056751
  N   5.86012515430772     -2.24258188388901     -0.30049111082787
  S   3.46158752144589     -1.35907705354897     -0.64305785976848
  H   10.19354081780914     -0.51073352752527     -0.21570921909845
  H   10.03295447764504      0.47886925283038      1.22116961244958
  H   11.29783059030949      3.29943065796399     -1.61908408685894
  H   6.85438798946866     -2.03989697766855     -0.19792374009486
