29
Coordinates from ORCA-job 20806optt
  Br  0.53783887393381     -0.00425344949937      0.66062222233668
  C   2.93223576120619      0.11188164885309     -0.12735524772049
  C   3.53953747586786      0.24482464366006     -1.32897844828966
  Br  2.47903837321424      0.45414409113622     -2.89470159085309
  C   4.95833970930239      0.23607777644447     -1.34366919100254
  Br  5.85842849487563      0.38771039409653     -3.03570304631315
  C   5.71796283681352      0.11245734183082     -0.21281042453725
  C   7.21778354213891      0.11348177777403     -0.19058773604389
  C   7.81948688680568     -1.29383427352059     -0.12645855092067
  C   9.33603819404312     -1.24502540730340     -0.08194649954582
  N   9.91674580878052     -2.56889469211937      0.09201101014476
  C   11.36404270257959     -2.54608546967307     -0.02847616780707
  C   11.94825052269494     -3.88014951297610      0.10892797726308
  C   12.42432576670818     -4.97450016875244      0.20932880590186
  C   5.04207846124378     -0.04991082891587      1.07091054779419
  N   5.56005020247014     -0.20936740666248      2.24121866062156
  N   3.65667719414246     -0.02614173570122      0.98510235207716
  H   7.55485989249136      0.68720557071922      0.67903853035446
  H   7.60505588054358      0.62720113123181     -1.06906557517359
  H   7.49328929382164     -1.85534127964979     -1.00780347977394
  H   7.44481595806470     -1.82547334789311      0.75102369112245
  H   9.65624567995288     -0.62811899755664      0.76490554971130
  H   9.71052487633013     -0.74962930460914     -0.99325855225259
  H   9.52399377846466     -3.21653357375231     -0.58215023587745
  H   11.75962572470164     -1.90666458011224      0.76629685295521
  H   11.70922101627349     -2.10998610720027     -0.97948577073958
  H   12.84329661436888     -5.94648505422444      0.30965393918633
  H   6.57146533368676     -0.22442399624351      2.19670985553471
  H   3.15474514447892     -0.13616518938084      1.85970052184705
