20
Coordinates from ORCA-job 20815optt
  Br  1.10836098362827      0.54108280890806     -0.08404173909028
  C   2.96778855448245      0.26725820124496     -0.08765702224895
  C   3.57306863878876     -1.00110044065225     -0.08810138771017
  Br  2.47151134898753     -2.54204371595759     -0.08562460165333
  C   4.95373607338265     -1.14546512808462     -0.09019676256409
  Br  5.81545190371464     -2.82454549944111     -0.09176756237386
  C   5.80562340676053     -0.02179711913936     -0.09163194182461
  C   7.19739660800250     -0.00069699814576     -0.09299297015726
  N   8.35327051515977      0.13964972795344     -0.09437370432716
  N   5.17076822001343      1.23265816803766     -0.09105485884681
  C   5.69934895220206      2.48125909422655     -0.09155754174659
  C   4.65552003748791      3.38146581190435     -0.09028679250752
  C   5.25395120975257      4.67731467913622     -0.09097439980881
  C   6.61636759662620      4.47416773500313     -0.09249458115209
  N   6.89949109333720      3.11555103292459     -0.09298501799622
  N   3.44928082672765      2.71294087591180     -0.08879656595552
  C   3.78089054909606      1.43507729163442     -0.08922467654894
  H   4.77080715280166      5.64011222857113     -0.09035537504303
  H   7.42100089927678      5.18901937227266     -0.09324302792672
  H   7.80336542977134      2.67309187369169     -0.09363947051806
