19
Coordinates from ORCA-job 20818optt
  Br  0.82010157186830      0.05914535600146      0.04959314080206
  C   2.70563509478885      0.06112590413275     -0.01052181119236
  C   3.44118690411835      1.25105373614671      0.08230623876921
  Br  2.50746744805928      2.88953551244910      0.25027240895547
  C   4.82922099939392      1.23339097925361      0.09470174549383
  Br  5.77657095103057      2.85076187528631      0.34337515653939
  C   5.56653219857968      0.02166382350758      0.01678406142299
  C   7.00431870532286     -0.12847016489805      0.13328445596868
  O   7.53699335213265     -1.12605847181689      0.67931720977853
  C   7.88275192050963      0.82297897916841     -0.52634407630582
  N   8.64581533330386      1.49093050098157     -1.07456015422686
  C   4.79125217172978     -1.16251304473234     -0.12103057862087
  O   5.41928307268298     -2.34701806882168     -0.41712873164641
  C   5.77870455890033     -3.16113936456252      0.61616360551295
  N   6.19722857093203     -4.33047363556224      0.45299903599148
  C   3.41166665647861     -1.14316321084403     -0.12367349958667
  Br  2.51410504551410     -2.79120540090414     -0.35917041029491
  H   5.65195030041024     -2.71608319147647      1.59836972781019
  H   6.24921514424393     -4.54746211330910     -0.54273752517089
