23
Coordinates from ORCA-job 20810optt
  Br  1.07096927527035      0.19362685095656      0.69615546599453
  C   2.90127235770337      0.78915585415254      0.82363987850032
  C   3.69813353164910      0.54978652186620      1.90515521617430
  Br  2.91842778895819      0.29109106240044      3.62805622217596
  C   5.07827076801185      0.51517939362820      1.68257833325567
  Br  6.28036380209836      0.71833698167715      3.17121095225252
  C   5.60316972844866      0.49986940395661      0.38239767947237
  C   7.05684392995183      0.28204081476263      0.10848218755294
  C   7.47571391951646     -1.19211291549085      0.15719647679348
  O   6.79180044331765     -1.85679872846601     -0.92244116579484
  C   6.66628700190015     -3.17624379103098     -0.84374133428405
  O   7.10149218370553     -3.87840441025795      0.02095514085070
  C   8.92453847021808     -1.35703931602488      0.00742791018365
  C   10.11363494067249     -1.42963572491509     -0.11664674491593
  C   4.70469963452988      0.67389975360367     -0.72339771054019
  N   4.88539976948154      0.56339327103578     -1.98336681583754
  O   3.41558302139584      1.10848763775520     -0.38384809014801
  H   7.66933692914518      0.80180617922853      0.84689905440764
  H   7.33484240684593      0.67856209346138     -0.87019804946773
  H   7.15244507984469     -1.63721804272142      1.10019592656723
  H   6.09136816467062     -3.53323543263079     -1.70704016142582
  H   11.16843864677060     -1.50984428719657     -0.22001763020120
  H   5.82696820589343      0.23529683024967     -2.16865274156602
