25
Coordinates from ORCA-job 20827optt
  Br  2.03241247107660     -1.20368017579371     -1.23340873194304
  C   3.60588449373794     -0.34818389807062     -0.55933368374247
  C   3.74853628338556     -0.04856403055041      0.79648560682920
  Br  2.22300965680986      0.73456024467199      1.79453755557890
  C   5.04418648370151      0.18097855520560      1.30794946371485
  Br  5.41878604916606      0.01527305729450      3.20611311696810
  C   6.08781775096398      0.35303516007818      0.46068107780248
  N   7.46181570692363      0.35457275629184      0.74786625317751
  C   8.13924822035042     -0.90956902785677      0.36029563297637
  C   8.59157857194438     -1.02100700085368     -1.06378617620794
  C   9.86740969883568     -0.89079469099170     -1.56427683789110
  C   9.81871122453406     -1.14299140833729     -2.95918565315266
  C   8.51090973345723     -1.42357792723028     -3.26465157064536
  N   7.78114508726714     -1.36249898821883     -2.11668285542287
  N   5.80441238572198      0.40355600854407     -0.88147375339602
  C   4.68057037607906     -0.21844786801632     -1.46583227270965
  O   4.78604597267996     -0.58570007531377     -2.64506312871837
  H   7.58963128408033      0.50640159280704      1.74017550238085
  H   7.50019202007675     -1.76393661270636      0.61599984523230
  H   9.03658518390757     -0.97555863418131      0.97516851059763
  H   10.73742441224530     -0.64422790378331     -0.97647740841215
  H   10.64051319998770     -1.12131730375464     -3.65546344003104
  H   8.03147027455418     -1.64635853534674     -4.20252461490885
  H   6.76719667377213     -1.42901316443322     -2.11269045335974
  H   6.54950678474065      0.65504987054578     -1.51342198471691
