25
Coordinates from ORCA-job 20822optt
  Br  0.93452856916853     -1.19308131455365      0.82620885914618
  C   3.05691783592870     -0.01619667769830      0.40896361198100
  C   3.51307897503946      0.48061042767941     -0.77199757299079
  Br  2.27941754943811      1.04066644473272     -2.10255349865132
  C   4.91136974455237      0.55297679051352     -0.94646053000518
  Br  5.65361396415478      1.23410660772307     -2.56821342695587
  C   5.78819323344464      0.13510322013696      0.01690895437662
  N   7.18687149246073      0.09342929183681     -0.22095332030874
  C   7.69265168117891     -1.07528345161885     -0.93838431429329
  C   9.04072978346768     -0.77282304650392     -1.54848082967321
  O   9.91860917284607     -0.27816741671861     -0.56147723822305
  C   9.47925974776532      0.97753400347876     -0.10099964752435
  C   7.99236794708494      1.09878362010856      0.21330564845723
  O   7.59783078226472      2.08745819466907      0.79376138767060
  C   5.30420063655185     -0.38789140448593      1.28286492368099
  N   5.98279214636821     -0.82483498449377      2.28212259880130
  N   3.91513409433529     -0.41164239479086      1.35532318749588
  H   6.97769479869503     -1.31706356855238     -1.72722746010087
  H   7.75808378449054     -1.92888312970241     -0.25686560746482
  H   8.92452984913010     -0.03475415387968     -2.35363854385636
  H   9.48568222221953     -1.67886799343245     -1.95798391764242
  H   9.69467478749636      1.75883487810345     -0.84182160747164
  H   10.02411195007091      1.21195852167842      0.81103597180825
  H   6.97625208326166     -0.72016729243812      2.10144436610494
  H   3.52840316858537     -0.81080517179180      2.20311800563893
