22
Coordinates from ORCA-job 20834optt
  Br  1.03594554916221     -0.07965209854299     -0.07947965429199
  C   2.93773306219252      0.02522082396837     -0.00713061451141
  C   3.62942754797188      1.22969690460089      0.08112071949915
  Br  2.68674819489532      2.88831199826667      0.17663264672049
  C   5.00284881441029      1.22822574656425      0.07646562063113
  Br  6.16326924651533      3.01685797842090      1.40778705978039
  C   5.72129973252803      0.04009980260111     -0.02025278067967
  N   7.12763518716863     -0.03245986112268     -0.07298360245952
  C   7.73807201954127      0.96092856131397     -0.52449009326604
  O   9.11567914835798      0.94254324845467     -0.45086841825774
  C   9.80160305957584      1.75592557680939     -1.26695306281777
  O   9.36104784694078      2.36878219649412     -2.18943753354984
  C   5.01124032815282     -1.16385504578479     -0.04367097400324
  O   5.64763424939522     -2.39068712439359     -0.13719895894344
  C   6.55282147025033     -2.71059955925816      0.82341225848199
  N   7.18924188954004     -3.79260171120479      0.83120864783746
  C   3.62831488408855     -1.17671923736790     -0.04916112121116
  H   7.31312177464461      1.86525804053298     -0.94803361343256
  H   10.85525545487424      1.75627580900706     -0.96399991158471
  H   6.67142195991396     -1.96246041549916      1.60223628666267
  H   6.94665259937255     -4.34624771194562      0.00882397652008
  H   3.10398598050733     -2.11984392191470     -0.09202687712425
