25
Coordinates from ORCA-job 20832optt
  Br  1.12688297840395      0.23868309001546      0.63219459358300
  C   2.94140182943820      0.09626751894200      0.04627442593607
  C   3.67983065777351      1.24369136669982     -0.24705410954449
  Br  2.78516647305084      2.77920216329778     -0.98019938649301
  C   5.09121796031708      1.26568201585360     -0.22109143057458
  Br  6.01820783816237      2.96955274197386      0.06371603184832
  C   5.86438711127933      0.15508204827162     -0.24820228315006
  N   7.22207710175037      0.13731989195741      0.08479670301045
  C   8.08281964169012     -0.90307651900938     -0.04619735755483
  N   9.31615499527626     -0.80675619035190      0.25677219681536
  C   10.11878739409939     -1.99555255758452      0.09127795230069
  C   10.62994702380986     -2.47070710419336      1.44350300380565
  C   11.58344845810856     -3.62288455222505      1.37369422228854
  O   11.96126186578672     -4.14302466959531      0.35814308683254
  S   5.11414060895972     -1.37902970825786     -0.66045615175137
  C   3.46554252207336     -1.21609662067592      0.08311277592014
  N   2.87493346068191     -2.28557434297495      0.49355972131294
  H   7.62476659803893      1.01673414144921      0.38069690287178
  H   7.63336775862482     -1.82462860694331     -0.42353623945794
  H   10.97942613974329     -1.77011322739974     -0.54355434234142
  H   9.57437945311080     -2.81604678675156     -0.39589288614457
  H   9.79841488821327     -2.76030911070435      2.09640347645880
  H   11.13115394037619     -1.64975073554090      1.96870991795300
  H   11.94889400757518     -3.99788257391407      2.35213893654496
  H   3.49238929365577     -3.08978167233854      0.43319023953002
