20
Coordinates from ORCA-job 20838optt
  Br  0.90481708498398     -0.18367547382070     -0.19708539376338
  C   2.78602081732159     -0.06088443469790     -0.10157258517412
  C   3.46184401153733      1.16461228033219     -0.12600503095564
  Br  2.47915014123343      2.77062769549806     -0.34635961708202
  C   4.84623207598447      1.22883709881317     -0.00566632876728
  Br  5.82647643884833      2.83486578608069     -0.18369475133415
  C   5.59770332919879      0.03798178158465      0.16802472389317
  O   6.96608031481742      0.08248644962539      0.37096976428738
  C   7.74901047715678     -0.23450993746843     -0.68944300025641
  N   9.00321051385404     -0.23667074712112     -0.65853142776290
  C   4.92536532125257     -1.15730235492978      0.17087884282342
  C   3.52796083366110     -1.25887801591249      0.02726505219334
  C   3.29892048119798     -2.64624259932959      0.07849733339356
  N   4.44551621749067     -3.35471983322325      0.23944898187973
  O   5.47116942655167     -2.37082672147663      0.30177879146564
  C   2.07760320468298     -3.35948102883140     -0.01106583259948
  C   1.06300775434570     -4.00190595593352     -0.08466419491559
  H   7.19073021037909     -0.49425038864998     -1.58797544310810
  H   9.32980321691225      0.02765353657441      0.27157163906944
  H   0.15637812858974     -4.55071713711376     -0.15337152328661
