22
Coordinates from ORCA-job 20839optt
  Br  1.14726040005470     -0.04252269093914      0.86289987838839
  C   2.86697066272657      0.03283537626271      0.04560098269721
  C   3.49612504957290      1.26876267571585     -0.15961467824110
  Br  2.42076414989477      2.82768778457873     -0.41218295453412
  C   4.89542983285635      1.38439235203878     -0.26588070179255
  Br  5.72339767117903      3.11404276100458      0.13988179712148
  C   5.72543335966878      0.34252940455183     -0.53407394118252
  S   5.01534136760685     -1.15712252533540     -1.11268748938908
  C   3.46666204926119     -1.23400603468565     -0.18936010869829
  N   2.96191650014850     -2.38181062608527      0.10691114069275
  C   7.17751686637127      0.27660446501171     -0.17892888350861
  C   7.49351731459646     -0.46980218302500      1.12407985603481
  C   8.83521462097503     -1.10053561833762      0.86903507596075
  O   9.62960208835376     -1.55059039793294      1.63189852291838
  O   9.06438149634459     -1.11455101914221     -0.48491182787997
  C   8.06188672361405     -0.44336766370039     -1.17346855020181
  N   7.97600103065328     -0.43971274289361     -2.41947671968807
  H   3.59892041439695     -3.12893141465558     -0.15726195973324
  H   7.57227895516419      1.29275314349856     -0.11037560725477
  H   6.76971915758396     -1.27621268404719      1.27486690474029
  H   7.51208320910131      0.15567193712965      2.01245920068768
  H   8.71757707987539     -0.99811429901238     -2.83940993713758
