22
Coordinates from ORCA-job 20842optt
  Br  2.23964519657194      0.62596494284033      2.27737825296874
  C   3.46252648647850      0.35027369639423      0.86187648996006
  C   3.79168029196177      1.37485911848777     -0.02257363918811
  Br  3.04277524872681      3.09436799173453      0.11618694985710
  C   4.71338266464713      1.04260416749833     -1.01943183904817
  Br  5.27003271238204      2.35150562318351     -2.29333302468840
  N   5.25167367102396     -0.13730400015859     -1.16206465762433
  C   4.92434330758926     -1.11849037392345     -0.31404308014423
  C   5.56352483531657     -2.46031798830409     -0.53426958715372
  N   5.09948683073778     -3.41704097356237      0.42594597177214
  C   5.54679822854553     -4.62924963869548      0.29634368134586
  O   6.40607116712417     -4.88546705303778     -0.73717113128944
  N   6.93229269052422     -6.19781848360463     -0.93464477456945
  C   6.52072607991963     -7.07953179895313     -0.06340098478293
  N   5.69357015416088     -6.95095710618474      0.97719420351521
  C   5.20816650992945     -5.70177827762963      1.14670270698110
  C   4.02647959141709     -0.90384445457659      0.72471067865820
  H   6.65335235495298     -2.30720581592127     -0.50537849091233
  H   5.35440256218934     -2.74594232295300     -1.57583926110055
  H   6.94379092438306     -8.06409830697804     -0.24860457244043
  H   4.52705193646255     -5.50358839777350      1.96308502013731
  H   3.79722655495531     -1.72894054788240      1.38333108774639
