21
Coordinates from ORCA-job 20849optt
  Br  1.16909131963749     -0.33779718079572     -0.35623459154307
  C   2.95452254049411      0.05575161216301      0.07748973251283
  C   3.56043542199564      1.25068870988237      0.03014507939673
  Br  2.59322717336009      2.82248383661672     -0.39304853144304
  C   4.97534230021107      1.37356732861708      0.22281372973632
  C   5.71231108957181      0.20340006905389      0.18014251482430
  C   7.10525387557579      0.05127802473859      0.10707146715080
  C   7.72547145014030     -1.18561006464105     -0.00558739229597
  N   6.99244270847881     -2.33698173948098     -0.04101837441401
  C   5.62655851303555     -2.26272765655688      0.04968653866021
  C   5.01315284624522     -1.06692959210423      0.17542658901623
  O   3.64980370678175     -1.06638393182285      0.46112342433752
  C   9.14306978794171     -1.03896576406871     -0.08876451802797
  O   10.00051189678147     -1.94075360152562     -0.20491471936538
  C   9.36877095721534      0.44620138164001     -0.01926325812493
  O   10.40583527864356      1.08430726813244     -0.06783143068712
  N   8.09875825102071      1.02066349890034      0.11687610473454
  H   5.43329472183536      2.34922148843687      0.25760368401275
  H   7.48150952526682     -3.21309456783689     -0.11099135459983
  H   5.06685146071159     -3.18568127502708      0.07119552999247
  H   7.94578517505561      2.01236215567869      0.07707977612662
