19
Coordinates from ORCA-job 20852optt
  Br  1.20827475226377     -0.25539922795007      0.05064674600331
  C   3.06570654547881     -0.03912930861953      0.03868471096566
  C   3.74509719991521      1.14634673667380      0.03729091857906
  Br  2.80853844938585      2.78701233883425      0.04713006402064
  C   5.13914285849582      1.16355645920474      0.02954321724773
  C   5.82374864266378     -0.08194723515074      0.02620387878753
  C   7.23656917324780     -0.16629760606309      0.02230054710395
  N   8.03956763524575      0.91257814712489      0.02042312494638
  C   9.34021410333659      0.60525041077394      0.01791732326438
  O   10.32456500846379      1.30625297134862      0.01629227312578
  S   9.55827880323024     -1.27082650535736      0.01736356340396
  C   7.83839653807247     -1.45391136562203      0.02133672984043
  C   7.08142356623090     -2.60689123601710      0.02439478666258
  C   5.68753011275182     -2.51207682466524      0.02835255449129
  Br  4.63941823514442     -4.09094401648689      0.03426497777834
  C   5.07686622664437     -1.27481903980389      0.02886798446639
  O   3.69709097684769     -1.23599671176835      0.03241189527106
  H   5.70525566142601      2.08192290536758      0.02757237311295
  H   7.54731551115487     -3.58268089182350      0.02400233092857
