26
Coordinates from ORCA-job 20853optt
  Br  0.59855594566379      0.01962747620433      0.63499152169423
  C   3.05035394391944     -0.02131854327262     -0.15691081474445
  C   3.80086995640725     -1.12374749086268     -0.47073752137392
  Br  2.95821631903179     -2.81533967661697     -0.84255218617510
  C   5.18585876925363     -1.06068835356071     -0.53395177528258
  C   5.82764953255003      0.14415382311875     -0.27285628015200
  C   7.33204993782667      0.26382584150769     -0.25710925580737
  O   7.84560132023434      0.93475565155017     -1.40946508580991
  C   7.66293157997106      2.33589709778129     -1.20914359704592
  C   7.16454738566662      2.50478919731697      0.23657294778164
  N   5.71150826243877      2.51889770487194      0.28225427366551
  C   5.06525587274708      1.27939737640144      0.03425750182640
  C   3.67725068436616      1.18312550393799      0.09311850523379
  C   7.70032725735130      1.21505182301137      0.86995680427563
  O   9.13234887703883      1.24253686584344      0.99696165587483
  C   9.62624952998634      1.97038369086497      1.98826699893578
  O   8.99711357112466      2.62421007391118      2.76998171810141
  H   5.77207636681115     -1.94195507242755     -0.77227534472373
  H   7.81926202512529     -0.70830077637438     -0.19489771942647
  H   6.92428043938605      2.73005378955342     -1.90809947334534
  H   8.62418151772534      2.83001830453796     -1.36807834716873
  H   7.54843250793094      3.40314387859393      0.71378254215681
  H   5.33980798949606      2.98855946140805      1.09562208933307
  H   3.08497600491707      2.05817870225139      0.34664700364512
  H   7.24748313914813      0.98442026598665      1.83188192900845
  H   10.72081126388189      1.88732338446193      1.99578190952287
