20
Coordinates from ORCA-job 20859optt
  Br  1.52129303453773      0.96723984618725      2.36676329692798
  C   2.87640373568857      0.35661085377287      1.18623190795363
  C   3.50086037452154      1.22951606866191      0.27880804627807
  Br  3.03650974928157      3.06070768742798      0.13963169555263
  C   4.47585697768316      0.72212516720730     -0.55519543272263
  C   4.84146346813761     -0.62389027449250     -0.54147052962123
  C   4.21094717968844     -1.51773951345678      0.37770498370340
  C   3.23184697682901     -0.96304183587848      1.24348755660519
  N   4.55189882952140     -2.80306702327561      0.56876947571454
  C   5.21794266269818     -3.46881688039713     -0.35227905903575
  O   5.02614395680976     -3.29240160284517     -1.73752351439561
  C   5.58193873113694     -2.22969346207948     -2.35569337036177
  O   5.69320523994765     -2.20915197652409     -3.54183758015896
  C   5.91148554039434     -1.04639864484801     -1.46489596993807
  N   6.98942969536268     -0.41792097950889     -1.71521492789900
  C   5.85205394366889     -4.69554718715710     -0.05579936522368
  N   6.39503517285173     -5.68724159863322      0.18649972632437
  H   4.95531180738997      1.38364885129601     -1.26695609363286
  H   2.76846087968418     -1.62641545605745      1.95970647777111
  H   7.07691204416654      0.37847796060063     -1.08173732384136
