29
Coordinates from ORCA-job 20860optt
  Br  1.20531906132701     -0.18977553613530     -0.32748370008301
  C   3.12576191510277     -0.13608353075748     -0.16807049360278
  C   3.83506804978250     -1.29475879096952      0.00643223730358
  Br  2.95886645295687     -3.49193748973594      1.02131654968609
  C   5.21751739134217     -1.23936328553252      0.09896469280287
  C   5.85119081372254     -0.00778232166592      0.01118858302227
  C   5.11655252379538      1.16471709856563     -0.15299686904104
  C   6.03719498860405      2.36053737395413     -0.20858564335260
  C   7.34771791593095      1.80506256896452      0.37866246103503
  C   7.33520151379862      0.29301175441556      0.04909936497531
  C   8.11443889306130     -0.55047078175314      1.04846810065430
  C   9.56906774418421     -0.13800892721388      1.05279258619230
  O   10.17409866159393     -0.11266174300528     -0.24747316867039
  C   9.47342649551357      0.15063369547413     -1.36899082522746
  O   10.07712829984380      0.40632613412033     -2.37310051709216
  C   7.96526632286032      0.03148958782352     -1.32373768163244
  C   3.73553686236720      1.11544001134296     -0.24740313463004
  H   5.77411867131500     -2.15843812834169      0.26110175093623
  H   5.66334706450654      3.21774570444826      0.35313731059117
  H   6.18290459277769      2.69278434055763     -1.24155576497741
  H   7.33150146110718      1.92469029811487      1.46570460180328
  H   8.23644960301982      2.31516501697417     -0.00245792554455
  H   8.02294997953417     -1.60790833772957      0.78736403777318
  H   7.70581274084024     -0.42640603105241      2.05387775286170
  H   10.18045039082323     -0.82345504736050      1.63788079323427
  H   9.67965438187178      0.86259344419916      1.48007199344967
  H   7.72981748898995     -0.99106213871253     -1.63587471219792
  H   7.56457899898662      0.69421158637806     -2.09062786962818
  H   3.14306072044014      2.01470347463274     -0.37170451064127
