29
Coordinates from ORCA-job 20864optt
  Br  1.80650679805477      1.80814957405097      0.72343384763716
  C   3.36447358214487      0.93184303618124      0.12455892732641
  C   3.88271367737903     -0.22792103464667      0.64276472168305
  Br  2.97669802953377     -1.02016732613965      2.12131663636266
  C   5.03221554327878     -0.84292284678411      0.10494244215491
  C   5.67454686056018     -2.07683520769072      0.65026849049015
  C   6.23522830570584     -1.93399456553951      2.08797007440104
  C   6.10562161228458     -3.25652534468840      2.84449660700129
  C   6.46816503578134     -4.40038441303296      1.90232327819859
  C   5.46410446737296     -4.41775062087911      0.73347355231776
  O   4.77944129857238     -3.19615587949558      0.59524322743438
  C   5.60368849794556     -0.17607753361318     -1.01355859444477
  C   6.72736794277095     -0.42285384758068     -1.84704870697343
  C   6.78917890606999      0.59905684927726     -2.79537644378309
  C   5.71830558986407      1.51092409823491     -2.58715067856272
  C   5.01969727216846      1.02106290425194     -1.50216162885439
  O   3.89872310069356      1.59405865852969     -0.92740875672737
  H   6.51256862491249     -2.30698815756495     -0.01830533512902
  H   5.72068354940868     -1.13774808056951      2.62276165740493
  H   7.28699325855462     -1.64460295238742      2.01268600816889
  H   5.07133670605637     -3.37746190681537      3.17646661190867
  H   6.74004038931508     -3.26067437635316      3.73339025600057
  H   6.46297671734703     -5.36544301376364      2.41312836211155
  H   7.48358385769584     -4.23984889125780      1.52823133546627
  H   4.69219817818830     -5.17052209444529      0.90425427843764
  H   5.97797602835829     -4.66562907249763     -0.20628481217010
  H   7.40996538228078     -1.25648695786859     -1.77112212197408
  H   7.53420864858957      0.68969041711364     -3.57372994202045
  H   5.49379213911175      2.40120858597429     -3.15356329386648
