23
Coordinates from ORCA-job 20865optt
  Br  1.03990614951427     -0.80502660863583      0.03475015596330
  C   2.91201850483490     -0.61028244834510     -0.12298836212679
  C   3.79708244685998     -1.66647886482431     -0.21171907609170
  Br  3.11287236065168     -3.45523218337419     -0.25296652571005
  C   5.18037022989736     -1.55407160671963     -0.26642866397825
  C   5.81795040192322     -0.29764374798193     -0.15168393685723
  C   7.19817322350965      0.01613767960895     -0.04643803345181
  C   7.32305792420659      1.38727252562770      0.11791303152832
  C   6.02342383332029      1.96858828735431      0.12956857415903
  C   5.70858326955753      3.41009376834343      0.24043307276888
  O   6.40251451379750      3.95654270646563      1.40130832167329
  C   6.02429471980448      5.15465054973802      1.81557118682612
  O   5.17569037047642      5.84568985436891      1.32771565096418
  C   6.24025439959418      4.11490229537998     -0.99088616253862
  O   5.56780911614418      4.47357193065961     -1.91595137965115
  C   5.10942891333636      0.92932827233533     -0.04620688921127
  S   3.38100053886416      1.06508804672572     -0.19238105402198
  H   5.77168554276893     -2.45358451392697     -0.36066920204267
  H   8.00046038391930     -0.70726376106563     -0.05672206892802
  H   8.24529035979318      1.93293507755014      0.26205363505193
  H   4.63921854919511      3.60372535039614      0.33095147896020
  H   6.61016258110710      5.43775456166811      2.70137686713888
  H   7.34475166692330      4.22530282865151     -0.99560062042457
