28
Coordinates from ORCA-job 20875optt
  Br  0.59351266700132      0.01190873822385      0.64181423963355
  C   2.96917366085324     -0.13690402232804     -0.22137465724798
  C   3.67833118330561     -1.30601187736904     -0.31292746995113
  Br  2.77579289077103     -2.98851105252954     -0.55709717391056
  C   5.06531145512996     -1.32833455332240     -0.26549293078215
  C   5.75520542908004     -0.13172312283596     -0.10977844605171
  C   7.25340740816908     -0.12699744875015      0.02530123619313
  C   7.65208673728837     -0.38391896084506      1.48999335790232
  N   9.08233616682634     -0.36124256647914      1.72119434569378
  C   9.87114780080267     -1.45365150151719      1.50097876303913
  N   11.13769470592850     -1.52430926650700      1.41077390809983
  N   7.82118411165724      1.12632312479357     -0.44772168736118
  C   7.22935907500955      2.34701866281259     -0.36585996108337
  O   7.81044127527748      3.36468838282271     -0.69536794155763
  C   5.81763938272733      2.35541663396909      0.17985057180757
  C   5.05519465728158      1.06911821937110     -0.01268490220592
  C   3.66373786218291      1.05149885269040     -0.07074123319235
  H   5.60589278727656     -2.26514761594941     -0.35829062854442
  H   7.68286110629883     -0.92648649267872     -0.58497859526594
  H   7.26223739377834     -1.35455239226782      1.80077645508526
  H   7.17618885180707      0.37095564590236      2.11950134799908
  H   9.53199184487404      0.54207818212545      1.69594708116377
  H   9.29434496080551     -2.37776706397476      1.43007905418826
  H   11.56886480828428     -0.60215103237259      1.48682294934078
  H   8.76458179142167      1.13209576694654     -0.80410822120002
  H   5.30277952839937      3.19955775693734     -0.27630813848736
  H   5.90475885469474      2.59035386490028      1.24788903765754
  H   3.11094160306704      1.98369513823152      0.01180963903769
