26
Coordinates from ORCA-job 20872optt
  Br  1.06709761330014     -0.48338539105264      1.85520023117333
  C   2.73599725332924     -0.17151783912407      1.01559548184241
  C   3.30609535670709      1.09675799044028      0.87170482474100
  Br  2.43142530151838      2.64906224258747      1.54988073851258
  C   4.51021740950497      1.25807120049749      0.24319540938377
  C   5.26824126467688      0.15715861470760     -0.27654850633960
  C   4.68392822898973     -1.14240063177256     -0.09922868397610
  C   5.35401388448578     -2.43125473512342     -0.49981906637477
  C   6.23497033152990     -2.35381715342082     -1.72987914293354
  O   7.47624286990496     -1.77141918341546     -1.40900179194221
  C   7.56484554296377     -0.37342767596992     -1.52659171073397
  C   7.71449439183545      0.03978144055351     -3.00916286387435
  C   8.84398976703666     -0.61281081663282     -3.66387994932069
  N   9.72846663417699     -1.12751822308399     -4.18346218417056
  C   6.50171983350438      0.54179593881417     -0.90488569290405
  O   6.83306142421957      1.75454279824685     -1.00740179588747
  C   3.45355368315049     -1.26151625196847      0.51348117312454
  H   4.93742929298415      2.24308793443254      0.13042914720777
  H   4.58587750107959     -3.19372196887421     -0.65386336333145
  H   5.99789415507287     -2.78658017909458      0.31317899476098
  H   5.73024648495796     -1.80781538684231     -2.53549276828124
  H   6.45768344279931     -3.35918434162751     -2.09336614465679
  H   8.50020319987473     -0.11140977008437     -1.02739024207133
  H   7.84304712148127      1.12123175953581     -3.03403913202628
  H   6.80633048086170     -0.20320574526212     -3.56443274964618
  H   3.02192753005385     -2.24950462646643      0.62577978772423
