27
Coordinates from ORCA-job 20871optt
  Br  0.88170432672706     -0.19868654945507     -0.46647519521090
  C   2.76210354138822     -0.02659609300115     -0.30473902011240
  C   3.42926823215067      1.19805472754854     -0.33533259163977
  Br  2.47399180850553      2.83033500592669     -0.55837294087516
  C   4.79809169282283      1.27404771847458     -0.20481557938990
  C   5.57285130641732      0.09175730639730     -0.06319332428436
  C   4.88946027600724     -1.14273855060742      0.01485340352093
  C   5.69713468805607     -2.38694807126638      0.26168622353071
  C   7.06890125500635     -2.21963815225996     -0.36257021901808
  O   7.70883585758490     -1.08302692889054      0.17464039101719
  C   7.07589459886901      0.16795986885030     -0.07289908516443
  C   7.66122285206956      1.13954763752492      0.96536852173156
  C   7.29214759052839      0.79764911430913      2.33267092436535
  C   6.97878777592411      0.49055738321057      3.44915076884229
  C   7.38616989141148      0.65710349118919     -1.47392712531734
  O   7.28694220227723      1.84572967003522     -1.80537642187524
  C   3.52092155472771     -1.19529173590985     -0.10764913764342
  H   5.28347144753904      2.23732282766356     -0.26360206938228
  H   5.18946798960489     -3.26497955121240     -0.14513434755408
  H   5.83224973779612     -2.53686572005896      1.33792136954924
  H   6.98103301299823     -2.14488333596697     -1.45260617209739
  H   7.71952899379423     -3.06394701875641     -0.12870909601264
  H   7.32907469689894      2.14640227362643      0.71202666386875
  H   8.74832334879244      1.11462114340457      0.85348343781312
  H   6.69216666001647      0.21917778712690      4.43537000139390
  H   7.54285382088418     -0.14537267148985     -2.21419872600068
  H   3.01040084120168     -2.14829157641297     -0.03557065405499
