24
Coordinates from ORCA-job 20874optt
  Br  1.00559347230152      0.81534446386132     -0.16606968764273
  C   2.86851664217935      0.66051551296913     -0.30749338189814
  C   3.75310466057709      1.68349732490539     -0.49666239552196
  Br  3.14665185019641      3.47557124209969     -0.57779432939827
  C   5.12609818344771      1.43416710013223     -0.58169757373777
  C   5.57989293883256      0.08740690507350     -0.52385556404162
  C   6.96218152527688     -0.19013770195763     -0.38289282940777
  C   7.80937988184630     -1.26167614349006      0.00686956148942
  N   7.77626740182955     -2.54752689840574      0.40539333987458
  C   7.10639654610371     -3.66065990437000      0.61975145537013
  C   5.76353254303516     -4.12810615311959      0.52803800977644
  C   4.67625358399545     -3.40524550570237      0.07497829002440
  C   5.02298395263499     -2.21828171610435     -0.56656392372054
  C   4.59442498884342     -0.92904375493834     -0.50233880215153
  O   3.26891002014919     -0.62683210910163     -0.21856436422567
  C   9.19472528175717     -0.79617097579098      0.03727044254149
  C   10.33467802616599     -0.40992245845152      0.05729351622159
  H   5.82473118776744      2.25745942367551     -0.60614458493386
  H   7.55749405373315      0.70244911434173     -0.54502415335385
  H   7.75832019826025     -4.43909521695543      1.02873446399805
  H   5.60960359056516     -5.10938146825828      0.96713325313944
  H   3.65939187839268     -3.68264043842883      0.32924487825383
  H   6.02572368894326     -2.24586561507913     -0.95249408236415
  H   11.34514390316540     -0.08482502690457      0.08488846170850
