19
Coordinates from ORCA-job 20880optt
  Br  0.98991106059445     -0.01824353710075     -0.74162222762738
  C   2.78807572789681      0.10493359325973     -0.15227538548182
  C   3.59413823883365      1.17383496566503     -0.39432199155487
  Br  2.80395100056798      2.74978314606044     -1.14319514215952
  C   4.97835235644264      1.19614550751580     -0.07324819995719
  C   5.71087604470422      2.47725233816534     -0.04716797772585
  C   6.03416895451882      3.21488623808697     -1.13471428967611
  C   6.73796394007984      4.47654364756810     -1.08451077218526
  O   7.01006027142616      5.14432441247654     -2.07513883771078
  C   7.16661000170308      4.95443811897581      0.24950213754252
  N   6.96297742848659      4.39505399219808      1.38240860506835
  S   6.13163914401344      2.98812765130479      1.55094746544782
  C   5.66550299059670      0.01685225212207      0.31493248294097
  Br  7.57512544550232     -0.00328637321858      0.23618642866028
  C   5.11846895745263     -1.23105915672542      0.67146722532794
  O   5.67809023258256     -2.26806787874090      0.97942713613565
  S   3.29307284595530     -1.31202187991676      0.71877382471252
  H   5.75739139008627      2.85047670178864     -2.11653605095824
  H   7.72162396855642      5.89102626051503      0.24708556920100
