22
Coordinates from ORCA-job 20881optt
  Br  1.18821573467408      0.37619462599546      0.78830149043333
  C   2.95906599959909      0.40730029499837      0.17938949359657
  C   3.78042903154681      1.50280739154029      0.12176289341092
  Br  3.17993551657612      3.19368138506326      0.71347504900238
  C   5.10365185879732      1.37751748728606     -0.31162284191294
  C   5.59834315443126      0.12799385799223     -0.72141339805449
  C   4.65163662159718     -0.94996051990353     -0.88905130043781
  N   3.43195897767325     -0.77942082947720     -0.33321238263290
  C   5.03780610927021     -2.15270940277991     -1.51708825458523
  C   5.66704405308837     -3.06335128835972     -0.54254754343340
  N   5.16230427805802     -3.85009804459725      0.32184365768011
  C   7.18122580539069     -2.81449063045291     -0.51163898542686
  O   7.97520004792884     -3.73374595901583     -0.33837056301467
  C   7.64872370944689     -1.44840006831157     -0.69160506841770
  C   6.99281941731418     -0.20212321823836     -0.78144683404677
  C   7.86652306693838      0.93404658242013     -0.76802487316578
  N   8.54450903968307      1.86587915895524     -0.75375297987465
  H   5.77016830338188      2.22221872684575     -0.19693718247230
  H   2.79415963627744     -1.55704703613387     -0.44325860747113
  H   5.81588850825524     -1.87325096857283     -2.22288280044024
  H   4.15273332561959     -3.89896047417359      0.17046455576802
  H   8.73065780445198     -1.38908107108021     -0.66238352450445
