21
Coordinates from ORCA-job 20899optt
  Br  0.95030187860682     -0.09442211792376      0.43103934542479
  C   2.82564126399786     -0.11468552349348      0.24069302909773
  C   3.57278453002765     -1.23069060666180     -0.02187853010218
  Br  2.70245100355371     -2.91891696694658     -0.21188197964180
  C   4.95896595285512     -1.23923098427905     -0.17274823588185
  C   5.76669195429154     -0.07927280560025     -0.09166774000150
  C   7.23198881121645     -0.13735698601536     -0.30130413433170
  N   7.91128302979046     -1.19263526384028     -0.59735132737652
  N   7.92481038675172      1.06082498276879     -0.16546103506430
  C   7.26470046598468      2.14784504033566      0.09481278981981
  C   8.08109954976287      3.42800385325619      0.16924012574578
  C   7.86079462055663      4.20247316741387      1.38737190577549
  C   7.69694211500193      4.84330020715513      2.38678128297480
  N   5.93768499075398      2.30876907985767      0.26832184526982
  C   5.24554932166387      1.18311394489369      0.17568456500603
  S   3.51794675831800      1.47139318084351      0.44459190824306
  H   5.42422473724844     -2.19421634715321     -0.36091193013903
  H   7.30117323244404     -1.99936354666582     -0.67924267362280
  H   7.81332330237615      4.05027402709103     -0.68963652079477
  H   9.13315685903859      3.16124566832459      0.08100901350506
  H   7.53348523575941      5.39854799663946      3.27753829609407
