22
Coordinates from ORCA-job 20895optt
  Br  2.12587832147891     -1.13411624450248      0.79585307242911
  C   3.92184861209674     -0.73549075416315      0.40088178986719
  C   4.54802432207185      0.41184483468177      0.68198255595136
  Br  3.71450905807513      1.83192694636405      1.59424975055942
  C   5.92164569570802      0.57382371238139      0.24470234189671
  C   6.59224498566246     -0.51441341852818     -0.16979320092181
  C   8.01454751900308     -0.41747782685900     -0.67650551446093
  N   8.60899962576299      0.85299939366700     -0.52803351186141
  C   9.75300979917581      0.73989360242973      0.16100889750543
  O   10.56544152062509      1.61735207151377      0.47823320996134
  C   9.93301606364920     -0.68294342670234      0.53463668331018
  N   8.89349607739867     -1.39922435195784      0.05955550267665
  C   8.77624244861978     -2.74762421158837      0.02341016397026
  N   7.74141506333077     -3.47933148312177     -0.25111650351603
  C   6.45219223114582     -3.03659530747254     -0.33949378675847
  C   5.93093778470106     -1.79096962079247     -0.22236298226591
  O   4.51883880687883     -1.74292834556159     -0.25883889467744
  H   6.40573468436438      1.54050425469664      0.24292865859328
  H   8.00651272284733     -0.76973354459952     -1.71986955825770
  H   10.71473982407330     -1.13263191776038      1.12531305286139
  H   9.70115033933455     -3.26643246368026      0.26342151419081
  H   5.72057449399611     -3.82943189844445     -0.46116324105343
