24
Coordinates from ORCA-job 20890optt
  Br  1.48992014375296     -0.90376261695963      0.85492341152426
  C   3.23968310498638     -0.50837857970786      0.30135095822155
  C   4.10850774539507     -1.38870147423155     -0.29953226154690
  Br  3.55722946944221     -3.17319050602702     -0.64241078282491
  C   5.39917340747007     -1.01824139447861     -0.68611820319563
  C   5.75239742116624      0.33105747407315     -0.44025698643117
  C   6.87188086256591      1.15496601944599     -0.65356090508529
  N   6.65446496010335      2.40559217579652     -0.21900818966128
  C   5.38391061574759      2.44168667820133      0.29335242842554
  C   4.79298569150311      3.70176799174192      0.84928374358387
  C   4.31581142282487      4.61619776583318     -0.25729338786332
  O   3.15664721234491      4.92478943121649     -0.40625207716623
  C   5.38930198732411      5.13633141791389     -1.19913532500559
  C   4.81155751452124      5.81593370636561     -2.40061790438084
  O   5.17464907948578      6.88563786931519     -2.81654791105851
  C   4.81072848246552      1.19634182106471      0.16823376924492
  O   3.55536289048140      0.78260033050103      0.57269308656602
  H   6.06125900036737     -1.73705726669631     -1.14393354442211
  H   7.81403203558266      0.87236616136270     -1.10273164755014
  H   5.56294769694264      4.23076341650752      1.42101265890589
  H   3.94203175786556      3.48967372177131      1.49577153246705
  H   6.00851132931814      4.28190863806921     -1.50354517926513
  H   6.05089238434152      5.81792640876439     -0.65980594568634
  H   4.01211378400085      5.25779081015662     -2.91987133779568
