21
Coordinates from ORCA-job 20900optt
  Br  1.18948304506435     -0.27301576566452      0.34265424355679
  C   3.04856911071568     -0.00451412639861      0.10043161215451
  C   3.68923125176537      1.20149361107696      0.17232239476956
  Br  2.64440104695831      2.75935420522268      0.48336168020171
  C   5.10642918131812      1.28878779646916      0.12251410294221
  C   5.77340471655302      2.58494550684610      0.02129809738173
  C   6.86986543088608      3.05584827791516      0.70335589064828
  N   7.05565824736524      4.29443763124588      0.21347959399120
  N   6.15113698288841      4.59657702699777     -0.72186205062513
  N   5.37924114552930      3.57281776718496     -0.84305200082292
  C   5.84280375709143      0.05961892056431      0.13830083250332
  C   7.26022874881402     -0.12392310109127      0.15288061781206
  O   8.19610923074752      0.67172765700806      0.24028156806053
  S   7.59923606929485     -1.90429247597189      0.03157623042907
  C   5.90824409699725     -2.31118406586358     -0.01133942104707
  C   5.14665691044811     -1.19644477158159      0.05677907153236
  N   3.75117173344922     -1.18837778694691      0.02507246289933
  H   7.52407760713245      2.59079969914205      1.41585564583467
  H   7.77794886895289      4.95649043214902      0.43603556438338
  H   5.56441203297817     -3.33002692306611     -0.08528526589253
  H   3.28069078505009     -1.98911951523765     -0.36366087071305
