26
Coordinates from ORCA-job 20908optt
  Br  0.43797001185006     -0.11384399663575      0.73867689757027
  C   2.90355790470737     -0.13318135471618      0.04538663073759
  C   3.65541411444686     -1.23942789723368     -0.26063149898527
  Br  2.80684004948584     -2.92177805960608     -0.65483348584751
  C   5.03837272806640     -1.18802788506263     -0.30897770181375
  C   5.69351109938903      0.00987711880784     -0.02700920345161
  C   4.92777909588372      1.12908625357565      0.30248773600911
  O   5.49789960486098      2.35119961810287      0.59898208364210
  C   6.86075827725687      2.33301593222993      0.89056646519743
  C   7.61905252267633      1.56083291142416     -0.17921134637705
  C   7.21254446484498      0.09011764804113     -0.00411286690986
  C   7.78826554248475     -0.41243176504905      1.35787645937316
  C   8.02980095824933      0.76995694643720      2.29237133834398
  O   7.03928342441724      1.77169495816745      2.17506861854349
  C   7.80563152829838     -0.69137660344455     -1.09497532496914
  N   8.33093939948799     -1.27414793483069     -1.93209489327024
  C   3.53990549678142      1.05593331593787      0.33323042003940
  H   5.61731653226435     -2.06610845663025     -0.57778952050842
  H   7.15821340565361      3.38306871002735      0.92309179222583
  H   8.69746252379669      1.68278313391323     -0.07717812028919
  H   7.31592241782914      1.93436350018799     -1.15625468178245
  H   8.73337749061469     -0.93554285150637      1.20061531133611
  H   7.07759984847683     -1.11605074153729      1.78839952305438
  H   9.02176031094028      1.20089281198138      2.11215361644820
  H   8.00086300530444      0.44754078971112      3.33187987338542
  H   2.97295824193215      1.94055389770733      0.60328187829798
