22
Coordinates from ORCA-job 20912optt
  Br  0.95595414634917     -0.27225398871722     -0.04186172169754
  C   2.83533507232881     -0.08897428636792      0.08530878436687
  C   3.48487960384869      1.13832932174808      0.06887720952243
  Br  2.51769967008177      2.76812712631605     -0.10475062035305
  C   4.86013243887693      1.22565516348756      0.16673843167389
  C   5.64903511719323      0.04737091413786      0.27542999383517
  C   7.03775305184736      0.00914667850787      0.37065005199549
  O   7.66153324005436      1.24425426405891      0.37800521100602
  C   9.05215488139836      1.21874190628775      0.47182039618493
  C   9.55038463374531      2.59986476532917      0.50667868598531
  N   9.98960839726349      3.65679402040125      0.53775742306707
  C   7.73974913262465     -1.19961822717031      0.44407871842298
  C   7.05161146745050     -2.43452048498371      0.43828439932260
  O   7.52341397117489     -3.55274321047843      0.49259602283270
  O   5.65221825248460     -2.37580298867471      0.36310556202474
  C   4.96802799857057     -1.20187908922036      0.27757589946882
  C   3.60292508823667     -1.26992023294945      0.19370349886877
  H   5.34424570588715      2.19022142428932      0.15664004999859
  H   9.50792835628257      0.71064222567320     -0.38495533907600
  H   9.38748641517824      0.71117641881353      1.38258170061099
  H   8.81282969767661     -1.27206029209916      0.50254036451062
  H   3.12209366144602     -2.23755142838926      0.20519527742857
