20
Coordinates from ORCA-job 20913optt
  Br  1.03104965020736      0.60993108944519     -0.25212624832618
  C   2.84941803805972      0.08778627593998     -0.18872535783800
  C   3.88109712841212      0.96741721326814     -0.50146088160294
  Br  3.54858124761545      2.75396117152021     -1.03414911433509
  C   5.19417731461731      0.53641164088627     -0.40888956481922
  C   5.50098591193200     -0.76416277809153     -0.03452388550989
  C   4.46275663278341     -1.63256630051302      0.27141971511451
  O   4.66667743784592     -2.89205076220295      0.75921475492689
  C   5.37736859720499     -3.84873411166959      0.02846446845766
  O   4.95300418683932     -4.97398413470249      0.09134201105468
  C   6.58703979013134     -3.42616336812676     -0.67515089854624
  C   7.08313106775047     -4.41701242804555     -1.63498114147286
  O   8.09004077421431     -4.30022273568105     -2.30393871890339
  N   7.32141695453196     -2.34505404794712     -0.44439793697378
  C   6.95187420058475     -1.16822288108107      0.07909468367308
  O   7.73175293486224     -0.34311859140826      0.54557224558758
  C   3.14123826493610     -1.20832803118860      0.19966102341950
  H   6.01233343037728      1.21639484251648     -0.60608840690446
  H   6.44545343052555     -5.31090349345888     -1.72896931609310
  H   2.35360300656832     -1.89937856945940      0.46363256909126
