24
Coordinates from ORCA-job 20922optt
  Br  1.22155792504017     -0.01137266547670      0.21933221699949
  C   3.10411872623645      0.06025726027524      0.01303953830226
  C   3.79932125380741      1.22815348026095     -0.24012628094566
  Br  2.89439641605401      2.88271877771448     -0.49561134485884
  C   5.18490062032670      1.24874877956620     -0.32748088221440
  C   5.90641595853923      0.04357382104940     -0.13637583809218
  N   7.27957344250786      0.00386952052905     -0.08787764608511
  C   8.19244812797407      1.02345870034100     -0.02221833700202
  C   9.47723054250420      0.44754455856084      0.03816865321300
  C   10.72087499955512      1.13914074637507      0.11957437786197
  O   11.83973475784957      0.62870334314963      0.19553784575049
  C   9.29237862651466     -0.97136408852756      0.00413585441324
  C   7.95789975047172     -1.21080819460507     -0.08413440562565
  C   7.11333759615761     -2.41267039600599     -0.30399886754936
  O   5.87218757255327     -2.30360469623164      0.39424562288116
  C   5.19363164319783     -1.14320959727579      0.13168759183125
  C   3.82349202638327     -1.15034220682360      0.18883432552200
  H   5.70196993919083      2.16362972842988     -0.57365585091302
  H   7.88011455830668      2.05066959939061      0.04590167116920
  H   10.62903998154327      2.24476847564180      0.11460970142054
  H   10.08240220050136     -1.70451856951325      0.01948938897416
  H   7.60168296894287     -3.31343037280661      0.06143467056237
  H   6.89031177660609     -2.53732028926814     -1.37228115971990
  H   3.30597858923571     -2.07859571474980      0.38076915410503
