21
Coordinates from ORCA-job 20929optt
  Br  1.21899022796567      0.36471172975714     -0.21227529141023
  C   3.04585264602291     -0.06010938975056     -0.09365633858795
  C   3.58018335054311     -1.31723254058357     -0.00928126191597
  Br  2.35356771444010     -2.75956206644342     -0.01609312640475
  C   4.98809541563824     -1.52855795073160      0.10354012497085
  C   5.64090394752541     -2.81886742707388      0.13815275863385
  N   5.11112692059162     -4.03514360219984      0.01281044731865
  C   6.15401813819072     -4.90005154158257      0.10913439064682
  C   7.32891163941003     -4.21559805525236      0.29298678830690
  N   6.99247719865238     -2.89939855583036      0.30981905381900
  C   5.74836464022477     -0.30672687598073      0.16879461374139
  C   7.12860502106003      0.05860588838884      0.33173440961086
  O   8.19406349438458     -0.60030098242875      0.48039113880750
  N   7.11004651165581      1.42484478998690      0.30332071336024
  N   5.86997246010799      1.99416938316960      0.14706589723441
  C   5.10720126868029      0.94719651386152      0.07309485013283
  O   3.76348273419740      1.09504210047163     -0.09786407891612
  H   6.01000427659634     -5.96688650042369      0.04005380292431
  H   8.34642648224618     -4.54727272121287      0.40812123105588
  H   7.62786103375550     -2.06397939288687      0.41105010073954
  H   7.92084487811083      2.00511719674546      0.41109977593198
