25
Coordinates from ORCA-job 20926optt
  Br  1.40842742204608     -0.97247646999935      0.83994264930568
  C   3.28537838574305     -0.78126035262139      0.64174631457221
  C   4.10503558059627     -1.77946467543227      0.08063978409829
  Br  3.37297244965558     -3.45434102523002     -0.46400722980148
  C   5.45223129030132     -1.58430979725363     -0.08392768046254
  C   6.07336985290073     -0.36766783515513      0.29496517119500
  N   7.38849002864097     -0.16795844488948      0.04668401846193
  C   7.85314360243262      1.04049298284248      0.19708102058587
  O   9.22622201804462      1.28046720832285      0.21598188416448
  C   9.42122254217858      2.65232333097772      0.49310171666722
  C   8.21337485947923      3.07448198294707      1.32746781439791
  C   7.09183225140618      2.26268580806002      0.65230437157816
  C   5.92355336579273      1.80499184270960      1.55219513373167
  C   5.24310301581050      0.61607666220859      0.93911737529041
  C   3.88949398775054      0.39938772214589      1.06937487849278
  C   6.57782476509343      3.03541205694961     -0.49463527133442
  N   6.21753919266563      3.67590199734802     -1.37894955567083
  H   6.06793557968965     -2.35613942640677     -0.52575936988136
  H   9.45361149003418      3.22519901477779     -0.44165149238363
  H   10.37172330385130      2.76395724964708      1.01421568393196
  H   8.04152445683065      4.15005732624319      1.32903680037395
  H   8.32008094122718      2.71876587302071      2.35382363450363
  H   5.21546145179647      2.61603796290564      1.74018202165561
  H   6.37984759693650      1.53021563797371      2.51085734508569
  H   3.27260056909585      1.15716336790805      1.54121298144179
