23
Coordinates from ORCA-job 20927optt
  Br  2.39728809677521     -2.17568349044044      0.64648138263538
  C   3.72946765584864     -0.94040000850466      0.17477697662021
  C   3.58478994138592      0.38987215132382      0.04636216847621
  Br  1.92177719841651      1.24506608478227      0.30534618555527
  C   4.71823881007912      1.18057204838496     -0.27103184257882
  C   5.99767512234743      0.63091968519963     -0.29346905612225
  N   7.01135987100590      1.50514306585516     -0.51317473497866
  C   8.30166330852842      1.28818967184629     -0.50627076442047
  C   9.08128556156597      0.14200567058532     -0.25735453721562
  C   10.46131855233470      0.09188318965006     -0.24849801898765
  C   10.88960841251760     -1.26212163109674      0.03592238545539
  N   12.09045934545550     -1.75810933281255      0.14264064972483
  C   9.65984291980884     -2.03541251027057      0.19308406847139
  C   8.58298977968490     -1.21815778339041      0.02683625046139
  C   7.20821147019399     -1.58668755703284      0.09319173341447
  C   6.11717289468044     -0.79968030592874     -0.06612478563239
  O   4.91866741675833     -1.53727670324752     -0.04935845138439
  H   4.61575479019496      2.24158133267011     -0.43671909549976
  H   8.88989953891091      2.18047001546383     -0.72728634389643
  H   11.12848258860413      0.92538276710183     -0.42529480886415
  H   12.77071938652217     -1.01302663737032     -0.01060448548218
  H   9.64023325635412     -3.09462566496395      0.40659587476357
  H   6.99609408202605     -2.63490405780456      0.27494924948464
