26
Coordinates from ORCA-job 20938optt
  Br  3.31819385475828     -2.34093318839587     -0.85961954126433
  C   4.51938697392576     -0.91017749948378     -0.52024609651473
  C   4.10561271285400      0.40966144715160     -0.37068995786384
  Br  2.25957848554004      0.88319913800499     -0.47528879949627
  C   5.00763232344847      1.43108421933750     -0.13868135400478
  C   6.38676269352068      1.13619442398604      0.00012478537027
  N   7.39663640814429      1.97710093496032      0.21843370786617
  C   7.61389146258260      3.20748510743746     -0.14901313493432
  N   8.99729097359386      3.50048882429165     -0.32267127496371
  C   10.01377950749298      2.57406875233102     -0.37031097963863
  N   10.09467930732176      1.33479362360633     -0.68366439960954
  C   9.04163085231628      0.51037030417947     -1.24014355047415
  C   8.30476676587141     -0.41984527366023     -0.19727736602206
  C   6.81307338555311     -0.21782331054193     -0.19283415830555
  C   5.89483320257877     -1.20185895237491     -0.45405848897980
  C   9.75187992042044     -0.41474845642847     -2.20116788303212
  O   9.35402822482306     -0.73602709480197     -3.29001704204214
  H   4.65588607550463      2.44780321618475     -0.03035472239560
  H   6.91792253778489      3.87392192203394     -0.66074815285576
  H   9.30696949817848      4.42475973381669     -0.06946877690357
  H   10.96089216342101      3.03458593354304     -0.08055203348185
  H   8.29311097898098      1.06626952443216     -1.80715011192097
  H   8.71626725894490     -0.15748331231394      0.77847100467374
  H   8.53555283728653     -1.47189736096336     -0.39287555224001
  H   6.22118666228082     -2.21741341281785     -0.64520656695637
  H   10.70855493287188     -0.81257924351465     -1.80298955401006
