24
Coordinates from ORCA-job 20939optt
  Br  1.04093933252393     -0.39682761097743     -0.52207186997105
  C   2.82234783567420     -0.32245542430202      0.12137371572929
  C   3.69349007101398     -1.36024327163340      0.11026277853858
  Br  3.09716223188876     -3.12567962229295     -0.34366297131213
  C   5.07618423513576     -1.23949407101202      0.35453262694841
  C   5.71340909512010      0.00171377248384      0.29717543833759
  N   7.09464776286282      0.03562062709241      0.19296561337299
  C   7.89260799319479      1.14877845234522      0.07252265219251
  N   9.17608029356920      1.11594096657234      0.00149809241637
  C   7.17533608059826      2.45523064209267      0.00298686216229
  N   7.83267582170765      3.57198444997949     -0.11666646498762
  C   5.74649266641027      2.43049149125938      0.07996906202712
  C   5.06165246657915      3.76747153333202      0.02678033177194
  C   5.14464763180457      4.45066830152717      1.36847077640914
  O   4.23210651207256      5.02854090243550      1.90200613938743
  C   5.05580557960864      1.24072438793754      0.27010277599617
  S   3.33278507725745      1.25481191012297      0.68715907097600
  H   5.67125475089307     -2.13853119735359      0.43236049624702
  H   7.56304560120633     -0.85721708777383      0.16227020375479
  H   9.52900510759795      0.16289829147294      0.06022020031452
  H   8.82613606762541      3.34706661242572     -0.15867972302789
  H   4.01715867233342      3.70079737892012     -0.27573553284326
  H   5.61854204867370      4.39784156230763     -0.67501744037121
  H   6.13548706464763      4.37786700303818      1.85217716593098
