24
Coordinates from ORCA-job 20940optt
  Br  1.27794380891237      0.14997781069622     -0.65553441065706
  C   3.15567652480913      0.10878218895525     -0.39992620026065
  C   3.94078179364471      1.25471087191977     -0.21370306418117
  Br  3.16599441705164      2.99571259993948     -0.28058733257477
  C   5.28628572157466      1.16261838931402      0.02005864639112
  C   5.97275215741347     -0.08688926991097      0.15583583142915
  N   7.27338157507045     -0.03185569819624      0.49415652622520
  C   7.92832450519317     -0.97216008889984      1.14096335375326
  N   7.25217509168413     -1.99717295885826      1.90331425471741
  C   7.16002578900871     -3.25159190452800      1.27944528940531
  N   8.07541485748362     -4.12174924797406      1.21799235323418
  C   5.86331941950574     -3.48442878748421      0.52583518111810
  O   5.73516721628699     -2.47204667635381     -0.46491862472514
  C   5.16035546873924     -1.23947990295541     -0.16546778386379
  C   3.81378646963094     -1.12305912953129     -0.41725926768992
  C   4.71732843717186     -3.55992973146036      1.43897038430830
  C   3.79695162624368     -3.59356411000750      2.20438585044216
  H   5.87602711387590      2.05778274449442      0.15924413390720
  H   8.97307926706935     -0.82120305645083      1.37357716409345
  H   6.32248692681307     -1.65478124364382      2.14389297752590
  H   8.88197099667897     -3.78448868144587      1.74696549735836
  H   5.95709316059618     -4.42420172100058     -0.01750423614639
  H   3.26617340774025     -2.02098007330420     -0.67405610613771
  H   2.96850424780171     -3.61000232331386      2.87031958232750
