21
Coordinates from ORCA-job 20946opt
  Br  3.41823400307492     -2.63738424138899      0.11755617189997
  C   4.24959475671134     -0.51719854045319      0.66526487083507
  C   3.52511001328726      0.62100013890525      0.35786435196746
  Br  1.64684214949345      0.67984485825566      0.64356097753152
  C   4.18437633457961      1.72644781604285     -0.12735891543030
  C   5.56237563605529      1.76270764124014     -0.38655900001621
  N   5.98182083800282      2.96645086353082     -0.89693519445007
  C   6.97681003951578      3.58026674618218     -1.33397291144534
  O   8.29382824440459      3.29092750232699     -1.52114632861297
  C   8.98466110086927      2.18367072643047     -1.20580042128524
  N   10.28349732746304      2.24960272735471     -1.47050288141173
  N   10.72296359029048      1.07856726236866     -1.08394357953766
  N   9.84220225907518      0.24671534411586     -0.59151182704403
  C   8.66779297177369      0.91108034646428     -0.64205181795606
  N   7.58173668994092      0.25376158157025     -0.19007386078217
  C   6.33254206268523      0.58713697920677     -0.09429359571246
  N   5.56257802589038     -0.45634620509436      0.44608774900546
  H   3.64064818486719      2.64017215976585     -0.33385157815419
  H   6.85483826933701      4.60218094053619     -1.68231597652334
  H   11.69250627688154      0.83082881483496     -1.16702125129106
  H   6.11804122580054     -1.28243346219545      0.63700501841338
