19
Coordinates from ORCA-job 20955optt
  Br  1.05941656013677     -0.35324867001135     -0.37234291773012
  C   2.91487200126238     -0.08798402789240     -0.19164994059925
  C   3.50809056374601      1.16715905391326     -0.17570278163604
  Br  2.39204177482850      2.70801170413820     -0.17018619095785
  C   4.89144489213730      1.35304132755521     -0.06323016410629
  C   5.54034711780101      2.65411871032050     -0.05864211819525
  N   6.47770234782209      2.99283579419658      0.80469846133175
  S   7.03165185132715      4.44295450347382      0.37153632762492
  N   6.01965158508578      4.62952664723386     -0.93774007752112
  N   5.28530599014132      3.60317635551646     -1.04734127713082
  C   5.70487508058500      0.19898946057093      0.05865787548324
  N   5.06191230549662     -1.04479660351958      0.15325607175036
  C   3.71197618277576     -1.28714921633948     -0.04849340662829
  N   3.21071140640062     -2.47501643473336     -0.07742113145837
  C   7.09631472903832      0.17661676617565      0.01765097770870
  C   8.30823412159818      0.09525328919839     -0.01495334647986
  H   5.66118880852549     -1.85204202078612      0.19475884048177
  H   3.94525328140953     -3.16881907670138      0.04798090320716
  H   9.36900939988210      0.05237243769077     -0.02583610514461
