26
Coordinates from ORCA-job 20959optt
  Br  1.08402044663039      0.09756140877140      0.40275856923408
  C   2.99726165106049      0.08933479989742      0.16228527133147
  C   3.67132060005642     -1.07877431165590     -0.07970140464975
  Br  2.64086949588548     -3.34965947554240     -0.70536342806447
  C   5.03930197428607     -1.04362199433524     -0.25079609160632
  C   5.71551458333519      0.16922343881201     -0.16956285624827
  O   7.09130232169570      0.12693752687835     -0.33322548392700
  C   7.70205523226448      1.34965201117085     -0.62143861433772
  C   7.27236860936034      2.44001650003312      0.36167928794306
  C   5.77878538299946      2.67439657708469      0.17859345468008
  C   5.03930690620051      1.36145392181966      0.08599139647953
  C   3.65684049415325      1.30375261988176      0.25292117857368
  C   9.20681936559300      1.20196022522660     -0.58850345576151
  O   9.95426120910694      2.01713496559031     -1.04705543057887
  O   9.61785455835351      0.08078598695493      0.05547316835788
  C   10.96897141363457     -0.15807085831330      0.15180881270513
  N   11.42761926839150     -1.16234890367064      0.73679124561976
  H   5.59841986392228     -1.95027251307166     -0.45699144820760
  H   7.45239356357955      1.67318501217113     -1.64098992082480
  H   7.85173126043977      3.34515320400152      0.17992142085279
  H   7.48556057987385      2.08274453787006      1.37260885480981
  H   5.61771977249266      3.26125174002494     -0.73139445577395
  H   5.38463162281651      3.26587223628154      1.00711285714908
  H   3.10722762210326      2.21622478999390      0.46028537891509
  H   11.59009636162160      0.59265185450100     -0.32293669921732
  H   10.67374584014289     -1.74254530037608      1.10872839254612
