22
Coordinates from ORCA-job 20964optt
  Br  1.17509126054677     -0.28691168186098      0.10290446137478
  C   3.03101541554101     -0.04057605182708      0.09852471619819
  C   3.68185743747863      1.15054975267017      0.10776382697853
  Br  2.70743698671637      2.77156922603526      0.13148111862903
  C   5.09603407624788      1.24239902154124      0.10206004237067
  C   5.71622235631743     -0.00329372082358      0.09146437780058
  O   7.06164134704944     -0.25135914442950      0.09055753683710
  C   7.25050903598720     -1.63012730914449      0.08686228648691
  N   8.43035004603944     -2.13915083576821      0.08804931619642
  C   5.96205425012304     -2.26210370173032      0.08277280831534
  C   5.69578907903986     -3.67517351722376      0.08292813231271
  O   4.58068039628241     -4.17615334748443      0.07660459705246
  N   6.84936447711481     -4.47135398802799      0.09285497390077
  C   6.79389087534379     -5.83709378236354      0.10169526919395
  N   7.77421151707042     -6.65161541303651      0.11901413936212
  C   5.03769134637925     -1.19822389099046      0.08535604702566
  O   3.67450477814879     -1.25625629770909      0.08554200795723
  H   5.61530440521818      2.18520497277755      0.10871526064484
  H   9.13393027083470     -1.40821893593976      0.09192088505879
  H   7.74494879330443     -3.97985493584090      0.09762691826355
  H   5.77565318096669     -6.21488978921774      0.09312961869266
  H   8.66081866824939     -6.14436662960585      0.12617165934772
