25
Coordinates from ORCA-job 20965optt
  Br  1.10182975806208     -0.44709083644197      0.27708547095536
  C   3.01029944734245     -0.30204861022588      0.06795354971100
  C   3.76056924113470     -1.40453819161536     -0.24297885110391
  Br  3.13824655975580     -3.77147134149513      0.37200966287365
  C   5.12882455621693     -1.25585509614641     -0.41275521231887
  C   5.68974647928424     -0.00296849710141     -0.26467257441299
  O   7.08191037584991      0.14852768929360     -0.40649754717732
  C   7.51438608304187      0.88268082268792     -1.46247207574006
  N   7.96928843645620      0.41959000124570     -2.53242281354186
  O   7.57940486504417      2.22584965310324     -1.24315292482954
  C   6.41207932297690      2.94414634628190     -0.90767183785313
  C   5.63942299839155      2.43153158682967      0.29421464567163
  C   4.94304228656469      1.11907375589120      0.07348153592829
  C   3.57292984289378      0.96006386830018      0.22886322999187
  O   5.52931632264852      2.97633835704087     -2.00592630636109
  C   5.96823340125234      3.63183586326417     -3.10935102761098
  N   5.29740296319513      3.76472913657399     -4.15870991749724
  H   5.75929196980294     -2.10868067789352     -0.64163866121747
  H   7.91557586329426     -0.59627926878155     -2.50385623322121
  H   6.79123452578612      3.95028357763461     -0.71313042320512
  H   4.90621655793975      3.19689267918458      0.55192538759534
  H   6.35249395789266      2.35549892887666      1.11967209618350
  H   2.95357853673263      1.81437641426832      0.47923945672234
  H   6.96940649304363      4.05156544406794     -3.01890499380777
  H   4.39926915539661      3.28694839515664     -4.07030363573441
