22
Coordinates from ORCA-job 20976optt
  Br  0.89240936205727     -0.07661400542851     -0.30840754939894
  C   2.78609274418734     -0.15797143818609     -0.13364320121821
  C   3.52051954432257     -1.23107294320771     -0.56505202032947
  Br  2.69437038812954     -2.75536602658412     -1.32599897696985
  C   4.95309007262934     -1.24124125384162     -0.46551035407574
  C   5.60167538704506     -0.06860508968176      0.06834029036348
  C   4.84787004019753      0.97459075814992      0.49685278868278
  C   3.42213842981147      0.96173890732034      0.44435781812560
  C   2.88862621222121      2.26430383309500      0.93446024202686
  N   2.93428461775175      3.34732794651642     -0.09105421182605
  C   4.19896382469682      3.67718633308614     -0.53368757261890
  N   5.31373732728675      3.31819091327648     -0.03543366344735
  C   5.26298403408521      2.31486706149705      1.05793428110876
  C   4.02574857440087      2.62526183846742      1.89114589041252
  O   3.94782386666722      3.04223319464896      3.01419526411081
  C   5.73445991911642     -2.32314789127787     -0.89427115995735
  N   6.43589179602825     -3.18062550167076     -1.24170923239450
  H   6.68254537604425     -0.04171158909960      0.10653127060267
  H   1.90994887687464      2.26026490744535      1.40650943811862
  H   2.22124067447467      3.30200857730259     -0.80660215707844
  H   4.21225397804197      4.35315245886651     -1.38746752896242
  H   6.19532495392978      2.32822900930584      1.61551034472512
