26
Coordinates from ORCA-job 20996optt
  Br  2.88150168473001     -0.50103844996432     -2.72004384726745
  C   3.82894853128528     -0.23147515486118     -1.07882421850660
  C   4.55585626148216      0.90532185384425     -0.85054420704378
  Br  3.65675207015879      3.15534939528385     -1.81514178435193
  C   5.26788854655113      1.00770697496714      0.33769364939744
  C   6.15657975701667      2.19338855494983      0.63625904249012
  C   7.53439717029666      2.04138553035688      0.05805349827429
  C   7.90078574657709      2.05201265823155     -1.27479804986296
  C   7.04795441475390      2.20546395365451     -2.48507014690838
  C   7.72151908158792      2.45542859039132     -3.78960041854271
  O   8.91124217180056      2.45544590771439     -3.99801716079283
  N   9.23747339505670      1.85370150532195     -1.30070426645251
  N   9.77708526573139      1.72075532239939     -0.08794106202675
  C   8.74684404867818      1.82514688037875      0.73927555085734
  C   5.16405061196041     -0.05080321985285      1.23637823831559
  N   4.43793897277720     -1.14848297559457      1.02988190906099
  C   3.78490784392263     -1.24013058672257     -0.12242931801865
  H   6.24637669588490      2.31940249735007      1.71761508480452
  H   5.67074237767297      3.08393078818069      0.23182510968023
  H   6.28986924642644      2.98519290972349     -2.33264933267429
  H   6.40934969050420      1.32159315472246     -2.63133772921141
  H   7.01688599757415      2.63801928787900     -4.62171665969941
  H   9.80747401991204      1.86888706573448     -2.13081550089062
  H   8.90218618374503      1.74740363557685      1.80489459770768
  H   5.70447290997023     -0.00612676996949      2.17972831028629
  H   3.20691730394290     -2.14147930969598     -0.29897128862415
