25
Coordinates from ORCA-job 20999optt
  Br  1.08255886809434     -1.06376854862757      0.78508435132989
  C   2.71139669465655      0.11698190562519      0.63076390560466
  C   3.63528880234455      0.13429328175141      1.66479555701167
  Br  3.04596971158664      0.21087798341239      3.47148637710442
  C   4.98662991514003      0.21289058674320      1.37177515779547
  C   5.44695197718588      0.07209768568388      0.06994250542162
  C   6.91590845220784      0.14882620392678     -0.23470927820082
  C   7.23787394153738      1.38026015317577     -1.09501164133005
  C   8.67087278940805      1.33562336239568     -1.63176488539437
  N   8.85953106578667      0.07255097326686     -2.31207049878470
  C   8.31029540407879     -1.06127868911554     -1.71370788217176
  N   7.43820159908074     -1.10548400220878     -0.80580523999518
  C   9.66205334890598      1.51940012358777     -0.54469666024572
  N   10.44997669330968      1.65920185065939      0.27695159848030
  C   4.49338944610467     -0.09198152868789     -0.99092340935841
  N   4.66885659843289     -0.35549515385783     -2.23136116240804
  O   3.16574356055502      0.14625620385356     -0.64591893130884
  H   5.69469778982506      0.39427369066934      2.17377407412667
  H   7.42580831406018      0.26292488582069      0.72807374557093
  H   7.08748190637377      2.28494828323580     -0.50720326263794
  H   6.56818757369995      1.41713210246925     -1.95564529421575
  H   8.82909889269489      2.15053769022174     -2.34043998174747
  H   9.75401568278873     -0.06808385280562     -2.75399243446846
  H   8.68478158186301     -1.99176289693991     -2.13891534666732
  H   5.64942939027834     -0.56222229425559     -2.39248136351079
