26
Coordinates from ORCA-job 20995optt
  Br  0.95042050700529     -1.46870564965282      0.97193809516127
  C   2.88974257731586     -0.45233447681099     -0.09811813714435
  C   3.47376257543462     -0.90168135437929     -1.24505653167904
  Br  2.42290594871774     -1.64319521512554     -2.65121298448673
  C   4.85994103718407     -0.76856265417825     -1.40937026708869
  C   5.66088013802621     -0.23581942431126     -0.42716901531205
  C   7.11114106396545     -0.13551472957411     -0.61386309261171
  C   7.98378048576440      0.92942703332298     -0.49540235273720
  C   7.60932352046354      2.35536420551768     -0.22227755794021
  C   7.54633568551425      3.10544094686357     -1.52665862862522
  O   8.19962613180220      4.07780795921537     -1.79763671266822
  C   9.28546342814264      0.45272277264375     -0.81723117179786
  C   9.17604244397080     -0.88072650368696     -1.11089786186870
  N   7.85917694164034     -1.22220500704457     -0.98634711420147
  C   5.06733156078983      0.20005167565044      0.82861071975035
  N   5.63709422405999      0.67858301422492      1.88101626390537
  N   3.67918142803138      0.07150700365603      0.85227929027931
  H   5.31505665987388     -1.07203771592105     -2.34815014628325
  H   8.32554435143286      2.85092997947152      0.43427447811421
  H   6.61922361781116      2.39338326000808      0.24340277498734
  H   6.84550968761746      2.67174717649714     -2.26752360815456
  H   10.19233083936858      1.03646213885949     -0.83479725902539
  H   9.91992458790797     -1.60766488319393     -1.38807238003031
  H   7.47454192956707     -2.14674396716610     -1.07892543424979
  H   6.64455877983702      0.68844146357769      1.75613799848824
  H   3.24515984875492      0.34532295153617      1.72605063521869
