28
Coordinates from ORCA-job 209opt
  C   -3.66746821131983      2.96564680027031     -0.19353445880425
  C   -4.30254400301528      1.70798343596490     -0.06284523167161
  C   -2.24968362352335      2.82960270244407     -0.20122405857718
  C   -1.84837487000390      1.53426857678704     -0.07621563247634
  S   -3.15726643919548      0.41955652528430      0.05099346466954
  C   -0.45351741982250      1.07435042254100     -0.03162448498472
  O   0.49010588727886      1.91375213270465     -0.16926995312214
  O   -0.20032590815091     -0.15986796551530      0.15153969078603
  H   -1.55717404963137      3.64639956284039     -0.29020950451992
  C   -6.51373884018180      2.76023005193721     -0.11848938018386
  C   -5.87868443424768      4.01794207250040     -0.24876152602999
  C   -7.93154528315799      2.89617321358599     -0.11137116321391
  S   -7.02401502690230      5.30633161538513     -0.36269782095216
  C   -8.33289839313754      4.19150414937975     -0.23628546339348
  H   -8.62402231934434      2.07930188614220     -0.02283289625771
  C   -9.72784360858431      4.65116191219192     -0.28129285165812
  O   -10.67130208081263      3.81138480551051     -0.14472774936204
  O   -9.98131063171883      5.88544478357343     -0.46369347301011
  C   -5.70867241585932      1.58192857657414     -0.02494975353438
  C   -4.47255120884119      4.14399200990123     -0.28670874052318
  N   -3.89809147525097      5.41381926641594     -0.42144241271094
  N   -6.28312896813414      0.31212664445359      0.11006982284386
  O   -4.65328232056426      6.39495271361799     -0.49373254525919
  O   -2.66950453482804      5.53414615914648     -0.46672807354426
  O   -7.51171382130383      0.19181039551201      0.15544098644942
  O   -5.52793617983339     -0.66896001321200      0.18297834619025
  Li  1.51272549547857      0.43329763885887      0.06185785711376
  Li  -11.69423531539205      5.29171992520368     -0.37524299426340
