28
Coordinates from ORCA-job 21000optt
  Br  8.06280715481958      0.49369545823447     -4.45377919407324
  C   7.58992377832886     -1.35164078359180     -2.73103420235635
  C   6.50983877877439     -1.46976196475802     -1.89791324187405
  Br  4.91171932106843     -0.47381098359801     -2.29825584069227
  C   6.56498838655697     -2.29339683697600     -0.76656439664926
  C   5.41178631584696     -2.49234888545479      0.18359262490009
  C   4.65767765092324     -3.83269919938083     -0.03629563121687
  C   5.45093007929105     -5.01459594432158      0.51607509676226
  C   4.88249832965072     -6.32530822753019     -0.00438147046155
  N   4.82862646350862     -6.24308819456837     -1.45272275826423
  C   4.43252208029970     -5.06564031645419     -2.02289051630033
  N   4.30846855593856     -3.93853920895392     -1.45085006247395
  C   3.33666351390078     -3.65266626914205      0.69421293718097
  O   3.03132068852511     -4.19055601996575      1.72503315331393
  N   7.68434159855422     -2.95855499985052     -0.46743478270286
  C   8.73611216524741     -2.83970882813537     -1.27654620348910
  C   8.73852139169078     -2.05504219811720     -2.41868952625785
  H   4.70302244476685     -1.67272719209196      0.07026221129146
  H   5.79473026487353     -2.48809876388564      1.20598931608517
  H   5.41079770676971     -4.99610633599015      1.60553924981227
  H   6.48947446093312     -4.90919916381067      0.20456898788146
  H   3.88408623060554     -6.49278070993351      0.41576375507876
  H   5.51783313981052     -7.16377073987245      0.28132675288403
  H   4.70216725951695     -7.08211776179899     -1.98974639147650
  H   4.22485009092288     -5.12815136185933     -3.08985337191378
  H   2.65460715382854     -2.94222538615926      0.18958677024304
  H   9.62095151619134     -3.40031053505436     -0.98571975462548
  H   9.62173347885537     -1.97984864697935     -3.04327351060573
