24
Coordinates from ORCA-job 21008optt
  Br  1.19390423395561      0.25595084648269      0.63369766572112
  C   3.02848568172632      0.08860683500293      0.17152793928580
  C   3.73961377768102      1.15098438298495     -0.45356956715911
  Br  2.92167846180104      2.82792909147364     -0.79661945335736
  C   5.06776962300545      0.99184188258959     -0.75356319344460
  C   5.77173700755766     -0.19857705510725     -0.46931761813809
  C   7.20107166557801     -0.21088278059826     -0.62233601169783
  C   8.08419129789858     -0.92379186571748      0.17744859345521
  N   9.41857541776392     -0.82632262689366      0.04496992187985
  C   9.93128486828889     -0.05112318185764     -0.87325788689569
  C   9.13643608362528      0.75364082832835     -1.77683351333104
  N   9.53607989909482      1.55287619458033     -2.70676358841208
  N   7.77780073603114      0.59784642561503     -1.58063150529346
  C   5.01735874227159     -1.30744888295253      0.06147444723128
  C   5.49334912335550     -2.66562922443104      0.12989520466211
  O   4.89228995099578     -3.60088490341527      0.66124184331561
  C   3.66556583478696     -1.09121029900761      0.41354508407370
  H   5.60011772852418      1.85230496100241     -1.13887179816449
  H   7.70728399108324     -1.54295151865055      0.97744734740774
  H   11.01118356158659      0.00344811649283     -0.96535283848600
  H   10.55138272012648      1.55272886534856     -2.73689296026192
  H   7.19351461261941      1.08349462487563     -2.24465115122742
  H   6.45468365483968     -2.85753500113859     -0.37308536840668
  H   3.12964132580278     -1.92829571500705      0.84149840724338
