25
Coordinates from ORCA-job 21003optt
  Br  0.76553514986392      0.71791286073867      0.81172013156464
  C   2.84021068063217     -0.27284573548651     -0.05862891359006
  C   3.34394320165801     -0.16695384223697     -1.31971912425659
  Br  2.18824669982579     -0.03834708459140     -2.82757160568469
  C   4.73425261846001     -0.17118400825813     -1.50802107267718
  C   5.60894597031386     -0.25026179999134     -0.45466337692289
  C   7.09057629217354     -0.24043823314790     -0.68188034095317
  C   7.86507911600975      0.91979731543080     -0.02582756815490
  C   9.10137945530700      0.31080622228349      0.60532127553692
  O   10.02302810898233      0.88962862313132      1.12890180276809
  N   8.99193951860837     -1.04757608552886      0.50370025314536
  C   7.79413285572242     -1.53748449350842     -0.13662858463701
  C   8.11190141957509     -2.48271131588453     -1.21711445460922
  N   8.37498999558940     -3.22157062300456     -2.05286074444911
  C   5.09560339311627     -0.34712100752809      0.89838085274175
  N   5.73073348291640     -0.43533229494847      2.02441421047969
  N   3.70716419721777     -0.36171493117008      0.96187248095330
  H   5.13183298511959     -0.11422576652489     -2.51753022828904
  H   7.26580144182306     -0.20948815352435     -1.75681983045330
  H   7.28408011291807      1.40697521213580      0.75866760721795
  H   8.16005444557052      1.68318209867980     -0.74291336771175
  H   9.68197081291824     -1.64926086818627      0.92439448841517
  H   7.13512728307805     -2.04986996464065      0.56918162291498
  H   6.73510032095722     -0.38820408352245      1.90742791371287
  H   3.32437044164258     -0.39371204071597      1.90019657293820
