26
Coordinates from ORCA-job 21005optt
  Br  0.58042901246450     -0.08696810540174      0.08188965278946
  C   3.10053644360898      0.04411980626107      0.26269711042021
  C   3.96458460817820      0.97143826540065      0.74173006578882
  Br  3.38821503057623      2.35553683046108      1.92216226530705
  C   5.32823485830165      0.88704006294576      0.39755762923732
  C   5.79693704096842     -0.07367149489855     -0.45729832947724
  C   7.21979031297650     -0.13877013054750     -0.80587198570739
  C   8.01998748839764      0.93828072505605     -1.12181995633931
  N   9.31559813460982      0.50618932488328     -1.31815346704032
  C   9.33544702109811     -0.84321604825637     -1.15250573242369
  C   8.08732272013513     -1.27481063822007     -0.84490940075561
  C   8.14517520737091     -2.74326856866938     -0.58147156999629
  O   9.53637761787329     -3.07994920372478     -0.78336032219691
  C   10.33108714825304     -1.94995523566322     -1.13134375478192
  C   4.87182816591413     -1.04200857989657     -1.03080969061408
  N   5.10379876023692     -1.97314837551727     -1.89371554564926
  N   3.56740306143609     -0.90237435146693     -0.56492414137101
  H   6.03358990527902      1.58455625161551      0.83853821025026
  H   7.75385370493307      1.97566779216190     -1.23826718547274
  H   10.08620977582557      1.09411270438815     -1.57604455656778
  H   7.53588464457193     -3.34073543615015     -1.26306644815462
  H   7.86494511858630     -3.00581661615324      0.44193096116496
  H   10.81105634170515     -2.12918000435530     -2.10037914253583
  H   11.11833196136703     -1.81049796490650     -0.38099238811123
  H   6.07016761322395     -1.92578278594311     -2.19698273760495
  H   2.89420830210815     -1.55578822340274     -0.94958954015790
