25
Coordinates from ORCA-job 21011opt
  Br  1.35942176588401     -0.68817345903955      0.81435815560783
  C   2.94164412635550      0.29031093472661      1.49071552237845
  C   3.55857747624784      1.24615623836056      0.67369158491624
  Br  2.48996971059886      2.50543578132584     -0.26581927845601
  C   4.93220827002322      1.31761291792338      0.66982051265918
  C   5.66997811894472      2.42331643155726     -0.04755512908414
  C   7.16010798715811      2.12743045614517     -0.15627947961956
  C   7.46421027076781      0.91661232301920     -1.07367218726866
  N   8.13789275283652      1.44501081604121     -2.27380613516752
  C   8.32283536979890      2.67862879647308     -2.07757655763973
  N   7.85819750194736      3.20087838671920     -0.87872855986739
  C   8.15026721752810      4.44738627217258     -0.40110262153323
  N   7.88621567358466      4.94468335760625      0.73688118860100
  N   5.70621488728066      0.40835113630191      1.29502845529718
  C   5.14293731881711     -0.54263570109549      2.05575900259490
  O   5.69785985610212     -1.43805840653596      2.64022895653301
  O   3.72939114857721     -0.48807342317220      2.25264631914829
  H   5.49801650924264      3.37534237904861      0.46506535341525
  H   5.26170620910868      2.54882659125181     -1.05466219831209
  H   7.59472272794498      1.99578234907399      0.83385894580562
  H   6.54738003065767      0.40061860739125     -1.35669960126526
  H   8.10521234059774      0.18254396529992     -0.58691245886523
  H   8.81682217424381      3.34507163970906     -2.77755378692494
  H   8.68646841173647      5.05883341098030     -1.12862000342802
  H   7.38874214401482      4.28210819871588      1.33093400047481
