25
Coordinates from ORCA-job 21014optt
  Br  2.67004373545832      1.08286591681101      2.97429368718231
  C   3.40196147586055      0.35863975816201      1.35744458515931
  C   4.22779342576213     -0.73326564501230      1.39365724105667
  Br  4.03031700700081     -2.57371913740896      3.29128706746474
  C   4.76981267396826     -1.24226403286334      0.22564401368868
  C   5.68261582499958     -2.45469582798607      0.23932524790568
  C   5.03508931068589     -3.65262297331914     -0.38535353282707
  C   5.40309057123058     -4.15464308100379     -1.56764641394868
  N   4.71452686212740     -5.24142985713033     -2.10495461034540
  C   3.64737192411916     -5.85912151638761     -1.52297764675976
  O   3.07429919155143     -6.79274528411045     -2.03777650872457
  C   3.22999478221882     -5.28982669076949     -0.16065844462639
  O   2.30845330228213     -5.77697923035672      0.44515806138887
  N   3.96933571857874     -4.23038392150556      0.28818978796725
  C   4.45242129387666     -0.62644110495854     -0.98559458921988
  C   3.61101412552901      0.47712032949030     -1.01948002781840
  C   3.07868505924465      0.98413497491538      0.15936299346876
  H   5.94868122864682     -2.67571866029345      1.27339660591854
  H   6.59394098699200     -2.23635299262661     -0.32129655726982
  H   6.21752522773361     -3.75227075986251     -2.14690966737792
  H   4.98982212192177     -5.62394755255038     -2.99670342021024
  H   3.73218132715224     -3.85207969750386      1.21597256437607
  H   4.86130669688754     -1.02538995248548     -1.90954664976828
  H   3.36472433133809      0.94619689989890     -1.96385885868468
  H   2.42599179483368      1.84794003885708      0.15102507200422
