30
Coordinates from ORCA-job 21024optt
  Br  0.97750936661074     -1.29919344869771      0.49277797008491
  C   2.79048095032426     -0.90248320490781     -0.04420620133362
  C   3.35244934346071     -1.57471564380922     -1.14388588189619
  Br  2.21735508711290     -1.87989618774481     -2.76607117334522
  C   4.72606949932921     -1.33773289769063     -1.40815638652727
  C   5.49084946169405     -0.51802854324235     -0.62151831483614
  C   6.97549365403441     -0.36558335378495     -0.83774137740717
  N   7.48241896313490     -0.97632353373845     -2.09769590273092
  C   8.59496204941359     -1.84746680612302     -1.68573645033800
  C   7.97139682976427     -3.08804941642333     -1.02913269280508
  C   7.47087401103926     -2.53072322994912      0.33343091880687
  C   7.85163432687743     -1.04583727895152      0.25025346463530
  C   9.20074527704386     -1.11626445142841     -0.47810744868142
  C   4.89509542109081      0.16867538362175      0.48481868522189
  C   3.52706492667877     -0.08622546336213      0.76590237656256
  C   5.62265949621543      1.07511489492878      1.28361191556200
  C   6.25657628891296      1.84304046633634      1.97577472406164
  H   5.19666559748021     -1.82931080059865     -2.25038393036428
  H   7.20571526730555      0.70559947143779     -0.81721036850997
  H   7.82051825865914     -0.25002513374555     -2.71516194596910
  H   9.25462780398973     -2.06492708818611     -2.52489915160735
  H   8.71581736937974     -3.87553393488426     -0.89404186555657
  H   7.15932083345278     -3.47494409102776     -1.64343288216969
  H   7.98734271357434     -3.00660077458607      1.16912704692819
  H   6.39961649581478     -2.66629436070275      0.47338150878296
  H   7.82199610492734     -0.51223469172776      1.19669401617470
  H   9.95091736617628     -1.69853193599565      0.06202415206876
  H   9.60569652532740     -0.13608014151172     -0.73830956120692
  H   3.08443283502640      0.34212242629026      1.65678324419984
  H   6.80369787614853      2.53045377020487      2.57211151219530
