25
Coordinates from ORCA-job 21021optt
  Br  4.40501804515802     -2.82158169529189      0.93468207989106
  C   4.27117318150305     -1.13506628487447      0.03199383236492
  C   5.01356172153155     -0.05398781410800      0.42879093222034
  Br  5.38262614682283      0.31932885684536      2.86738684742130
  C   4.88470682608663      1.11861272804085     -0.31329151015812
  C   5.65135253383249      2.36917869246977      0.04283950536932
  C   7.12674320021226      2.06679271664556      0.27741708386073
  C   7.78464897347885      1.22761395678853     -0.81657454107716
  O   9.19356235395585      1.45400927405856     -0.76054664539240
  C   9.42326234327295      2.82490632636871     -0.79416333675028
  S   8.14508015456978      3.55776478756814      0.28818829570937
  O   7.50600433807704      4.64199222949904     -0.42267831460208
  O   8.69387175771215      3.80391290032379      1.59621835066359
  C   4.02364089308467      1.10994928536290     -1.40511732623769
  N   3.29215664747879      0.05912639933239     -1.77958506960499
  C   3.41965392976501     -1.05203162606147     -1.06384590476899
  H   5.23956356930027      2.79526594491421      0.96065404161464
  H   5.54929940920677      3.10832551737682     -0.75439766705867
  H   7.27389276996932      1.59694814159728      1.25141886514813
  H   7.39915304849548      1.51180208387662     -1.80457516568286
  H   7.61075120037724      0.16827678834404     -0.65119718621908
  H   9.27383171830295      3.25502167862670     -1.79047235876650
  H   10.40800836631331      3.05464269364733     -0.39481844689696
  H   3.92109334885310      2.00512641763854     -2.01485137131828
  H   2.83434352263948     -1.91292999898936     -1.37147498972934
