22
Coordinates from ORCA-job 21026optt
  Br  3.63107714454995     -2.12737738238295      2.08359560217670
  C   4.08894017056662     -0.88847146270983      0.67853675379677
  C   4.85533556433213      0.26337852519301      0.98227202658579
  Br  5.43438878283607      0.71341732860133      2.72164331090638
  C   5.09222222955789      1.13157617302153     -0.12080937631338
  C   5.88233024923731      2.40219432799831      0.05045114149852
  C   7.36688435751019      2.18482314024586      0.19345851105146
  N   8.06991147230976      3.11979650502089      0.82523769772433
  C   9.38569975461919      2.94248346578139      0.89867047218272
  C   10.01025357646552      1.84051367850562      0.34151723971631
  N   9.31891519958779      0.89559946073425     -0.29114311704356
  C   8.00666366199121      1.06755489507437     -0.35894845891845
  N   4.67446844159621      0.85990057483406     -1.32616629310072
  C   3.97200061146551     -0.30634153453033     -1.50976152743928
  N   3.66524370036955     -1.18630375583426     -0.49088133980213
  C   3.51757563255792     -0.61339502924945     -2.80656532208585
  N   3.14664365826225     -0.86023379391777     -3.87715337642984
  H   5.54892408987803      2.96684068239730      0.92163444839543
  H   5.70777086398370      3.00721482211103     -0.84100740377743
  H   9.95768875711745      3.70422009824704      1.41791158872088
  H   11.08527520229526      1.71459646734192      0.40519750407644
  H   7.42678687891040      0.30801281351666     -0.87069008192110
