23
Coordinates from ORCA-job 21027optt
  Br  0.88739049911546      0.26526727237128      0.12724439489502
  C   2.76568343892279      0.42628309632898      0.03292136896571
  C   3.48320256005674      0.56622022642407     -1.13567541630872
  Br  2.55653047190984      0.73873614134885     -2.79799795001315
  C   4.86427056603423      0.62018171458217     -1.20483073735640
  C   5.74448360495007      0.56329161274700     -0.08852997636240
  C   7.16837957863147      0.53390785290498     -0.38316663773246
  N   7.68510192120099     -0.05520047132517     -1.39935169184674
  C   9.11457779761308      0.15917141387222     -1.35537823467668
  C   9.38310577300739      0.98443545495072     -0.11404434375551
  N   10.48024053992030      1.42558273340780      0.35720827227030
  N   8.13103003857928      1.20878191176121      0.43054924357779
  C   7.82500834466249      2.19220304024754      1.38822842925377
  N   8.64466611042198      2.87012661469145      2.06465412213315
  C   5.32866420864096      0.35334043242831      1.24738118808586
  O   6.01318423111228      0.19236362492316      2.24606794895369
  S   3.53545208071259      0.29222452168474      1.59004748990546
  H   5.32336887386917      0.72912583269793     -2.17633039436125
  H   9.47259462863033      0.69037606859271     -2.24314422437161
  H   9.64879225597367     -0.79405488862044     -1.30835341596127
  H   11.24729899901028      1.13996651772568     -0.24651062398492
  H   6.75771457275608      2.35587172299301      1.47749239588453
  H   9.60325890426844      2.59079755326179      1.85951879280582
