19
Coordinates from ORCA-job 21037optt
  Br  0.87728026245928      0.45801091699956      0.30260761328904
  C   2.75621356773010      0.28265517775284      0.11996814655321
  C   3.60452515970287      1.40881596778335      0.01407524393264
  Br  2.78575888740970      3.13533747795462      0.01133931284346
  C   4.99178073750519      1.38024683838305     -0.08169662803963
  C   5.79797680710502      2.65345689585759     -0.17558442164810
  C   5.88292839008151      3.41654606249047      1.10215935231355
  N   5.72884858483688      2.95703747370516      2.29812752114228
  O   5.91885773031793      4.02353689137437      3.09969346425254
  N   6.19040413063898      5.11328312027865      2.33959055575547
  N   6.17518782857619      4.77324296070562      1.14203322851337
  C   5.69935200627441      0.17154550411428     -0.08601501461427
  S   4.94576359949579     -1.40688676014924     -0.04817365890899
  C   3.17837949970927     -1.07039436147118      0.10086153062724
  O   2.48870689865888     -2.07270270012974      0.16678005242874
  C   7.10347955680676      0.13347607511939     -0.14159159865565
  N   8.25957470069886      0.08975654978751     -0.19507838030777
  H   5.37971193702643      3.32961875514825     -0.92113062742021
  H   6.81726971496590      2.42341715429543     -0.48996569205693
