23
Coordinates from ORCA-job 21034optt
  Br  2.15316030531334      0.36435900581133      3.10058368094299
  C   3.81350799536703     -0.01779352937247      1.35536448484619
  C   4.65673915911640      0.92841659992994      0.84642098751569
  Br  5.38050659690311      2.27822007905153      1.97878308813081
  C   4.97775443387841      0.86903725920627     -0.52669230524403
  C   5.92430227304724      1.87304650568343     -1.14565663801585
  C   7.33143697222009      1.72424817302332     -0.65956541995118
  N   7.84879413094864      0.55940738343253     -0.32942964410837
  N   9.10527177595021      0.82141295727282      0.05561621453053
  C   9.42555331048057      2.11956803007376     -0.01498696746416
  C   8.29622841952886      2.75537811021950     -0.48451244743732
  C   8.13710685059875      4.14362171102006     -0.72540485703661
  N   8.01490540784267      5.26608954954144     -0.93754053245294
  N   4.48737854941838     -0.02883588822792     -1.34407677554795
  C   3.62551182410610     -0.99021770711237     -0.85988623952847
  N   3.07652095002500     -1.92272240486266     -1.54836772963406
  N   3.34081345321908     -0.93532841046748      0.50952113821685
  H   5.59141614019219      2.88747955714057     -0.91487506288709
  H   5.88889277976597      1.73263435038179     -2.22613397228507
  H   9.68105130263999      0.06468315241764      0.38127718012856
  H   10.39116769143597      2.50051299964119      0.26941113764958
  H   3.38438825144349     -1.82213630001962     -2.51100002556504
  H   2.67859142655823     -1.62008118378462      0.85015070519695
