22
Coordinates from ORCA-job 21031optt
  Br  1.09959226670524     -0.41725899481263      0.08883341384002
  C   2.94872377984278     -0.11294577438479     -0.02225232438328
  C   3.56853338661865      1.10510468761026      0.01411345733474
  Br  2.42133908772134      2.62022321759374      0.17036646309074
  C   4.98907999793645      1.24338018458476     -0.01089420206174
  C   5.75049522269155      0.02421142387595     -0.00119784831710
  C   5.11074903326673     -1.20032383717000     -0.05492756974270
  N   5.57191285429697     -2.46595085172735     -0.10651959808275
  C   4.44500236121826     -3.19390987570351     -0.17709638140012
  N   3.29860894896078     -2.54125254960323     -0.17372488891883
  N   3.73006689103200     -1.25239475823451     -0.09008510034155
  C   5.75584773321101      2.45568899954072     -0.03400508316837
  N   7.06783467034739      2.45143638881557      0.06471504421679
  N   7.43829491445122      3.78160607395105     -0.07942523948379
  C   6.37022911183762      4.63345522140884     -0.15897974783280
  N   6.28162462788506      5.91666730424747     -0.21737658140552
  N   5.30860745551082      3.76577077205382     -0.19032484652300
  H   6.82641527787963      0.06551506327625      0.01085109208910
  H   4.45082287204929     -4.27269944740398     -0.23503666280733
  H   8.34792125893642      4.05505321319968      0.24205102097056
  H   7.20650079725417      6.33340423333624     -0.19504000851291
  H   4.35879745034652      4.07321930554561     -0.27804440856014
