20
Coordinates from ORCA-job 21033optt
  Br  1.09477689792430     -0.08382549373251      0.34359216423388
  C   2.97273843386567     -0.10823448477480      0.11320765295654
  C   3.74747634410087      1.08120632088968      0.00860848626610
  Br  2.92658277603560      2.78699660040522      0.11653698134760
  C   5.09493212786680      1.01740231557152     -0.16948054626038
  C   5.79995978249662     -0.21548826849169     -0.26924151589160
  C   7.20170663272992     -0.13231073123725     -0.50937594648579
  N   7.80894415848476      1.04510381762956     -0.60418425578496
  C   9.14207292282018      1.08091523981626     -0.84105521290896
  O   9.80510092362285      2.09488081996016     -0.88327848267479
  N   9.86594557735304     -0.16710828676721     -1.07771670123265
  N   9.26778725379541     -1.25277311284699     -0.96942589275658
  N   7.96382389793667     -1.27090259322633     -0.65588694907628
  C   5.00468791626957     -1.41223151671359     -0.12880617050250
  C   3.61733285517596     -1.31669241982398      0.05202664564504
  C   5.53561334203877     -2.72380709804363     -0.14918704843411
  N   5.97664987230650     -3.79256683490107     -0.17028938684571
  H   5.67868895300726      1.92321977744120     -0.24968088855475
  H   7.58794483579656     -2.20431132189207     -0.59758572537432
  H   3.04423449637255     -2.22947272926246      0.14522279233423
