23
Coordinates from ORCA-job 21047optt
  Br  3.62155383301616      2.00727566941135      1.30202228406384
  C   4.29238377214284      0.59496931661938      0.18390293360977
  C   4.64538254708244     -0.60882197838245      0.72346082386142
  Br  3.71557765075324     -1.55668920192673      2.97929518575598
  C   5.14273906728773     -1.61759778926023     -0.09289784259626
  C   5.28620013164786     -1.38002323658687     -1.45830830163789
  C   4.92157202361815     -0.14898843771988     -1.99663451269031
  C   4.41993341876023      0.85228514122241     -1.17878344102573
  C   5.45661523223774     -2.95539530251236      0.52436680476895
  C   4.22888995276296     -3.91599364013178      0.68881345554261
  N   4.93303007921715     -4.83786105661760     -0.24217022693601
  C   6.04255772467153     -4.03718992555572     -0.37016450623153
  C   7.02755896638550     -4.53878113797732     -1.12241271930943
  S   6.52657954768883     -6.11946215283968     -1.70470485616338
  C   4.92507278013133     -6.04923515636619     -0.84860734495036
  O   4.08451000655669     -6.91351081253348     -0.85676455093498
  H   5.68017538227153     -2.15645286499883     -2.10490127094451
  H   5.02793716636235      0.02892345584925     -3.05954957645529
  H   4.13363521482879      1.81429931044586     -1.58496784015751
  H   5.98206299245269     -2.82078958770471      1.46723558795134
  H   3.29101827318714     -3.53162162109380      0.29792273103594
  H   4.09811589365820     -4.32494893994335      1.68562454405623
  H   7.98289834327882     -4.11339005139721     -1.37477736061287
