25
Coordinates from ORCA-job 21042optt
  Br  1.20953422932285     -0.19943035820581      1.19971110320005
  C   3.03597777803446     -0.11835076973643      0.60557960567406
  C   3.79056611615778     -1.25572930847583      0.49931686406812
  Br  2.63734181567713     -3.47138516737451     -0.12446434698589
  C   5.12208021218415     -1.14828377980546      0.10909790695198
  C   5.65468896389091      0.10034809229857     -0.20176724597887
  C   4.86668070915741      1.24185514950216     -0.10998277735575
  C   3.54829284651031      1.13975067511111      0.30732934761016
  C   5.96466171503744     -2.37777263232911     -0.00624568382190
  C   7.50505441309425     -2.22435101135169     -0.02717370460101
  C   7.92175688560866     -3.64808329520506      0.33973881478716
  O   9.02918752582164     -4.10866972411141      0.36043180025743
  C   6.59938135777099     -4.35462385358418      0.64165323898107
  C   5.96002521588995     -4.70187935467772     -0.71345338844804
  C   5.70284688685301     -3.29003030707176     -1.23066516534169
  O   5.55789059020625     -2.93288995193665     -2.36184359302793
  O   5.80746209276701     -3.27026857966453      1.10194260474066
  H   6.68766003028342      0.18871375468340     -0.51877513744731
  H   5.28033050024123      2.21106323533360     -0.35772828955715
  H   2.92412328347666      2.01973135323791      0.39941612405093
  H   7.81178699447407     -1.54109016183697      0.76759809336616
  H   7.94065044409719     -1.91048973539774     -0.97451665059175
  H   6.65608868455818     -5.14968302050159      1.37793362661557
  H   4.99798678034712     -5.18908400416340     -0.55069077246943
  H   6.58494392853748     -5.27336724473676     -1.39744237467663
