23
Coordinates from ORCA-job 21044optt
  Br  4.73566343235809      2.85034114411239     -1.22611520152214
  C   4.45888994422158      1.19452033505488     -0.32872754685322
  C   5.14964667657604      0.03945712221723     -0.67866198311303
  Br  6.31632103888829      0.10091880442029     -2.17340673367332
  C   4.92700019493317     -1.18446273427131      0.01779713896936
  C   3.92438409116317     -1.13431781623638      1.02095302310711
  C   3.24095640297866      0.01401359012039      1.34089963251550
  C   3.50606686903149      1.20824043480959      0.68023310795873
  C   5.59661866547910     -2.43251157912109     -0.22038402189751
  C   6.88060876014478     -2.72265467539024     -0.70220160872304
  C   7.21461589722929     -4.06471477264716     -0.66979413573433
  C   6.19616308290682     -4.88703683378761     -0.16983070055457
  S   4.81749457506552     -3.92893661794464      0.26636741765710
  C   6.15899890533448     -6.29298584521672      0.01578365565106
  O   5.18096223295219     -6.91818473167699      0.47461072326038
  C   7.37226812158091     -7.00867400578388     -0.36464574399148
  C   8.36563565052711     -7.61675566281413     -0.67006825822832
  H   3.72283055086796     -2.03785260540681      1.57969274857349
  H   2.50003098230011     -0.00847329344935      2.13024679710923
  H   2.99103741942880      2.12416934735069      0.92723715558027
  H   7.57120689169306     -1.96198453592749     -1.02704859421527
  H   8.16804781766997     -4.46374730479368     -0.98690842974867
  H   9.23655179666932     -8.16436776361795     -0.93602844212731
