31
Coordinates from ORCA-job 21048optt
  Br  3.57563556079591      2.45290786323322      0.22467400151346
  C   3.68279934228431      0.55017842047563     -0.01175913403144
  C   4.85759600149801     -0.11703963020636      0.20997004554180
  Br  7.04799719811241      1.04753940020392     -0.60368556231877
  C   4.91740333219496     -1.49998598364664      0.05948610461261
  C   3.77235767646687     -2.17433434003926     -0.36144572815110
  C   2.58545302310667     -1.48613294317103     -0.59107419475506
  C   2.52540020012254     -0.11333014360214     -0.40310138932736
  C   6.23455329499761     -2.22080107939102      0.29844179499760
  C   6.92902395848842     -1.75356947101691      1.59084618194212
  N   6.29469022288940     -2.25507630373485      2.80946612926839
  C   6.17530393637177     -3.70581957410562      2.77472794314388
  C   5.46813166878200     -4.19396131698655      1.51320358539336
  N   6.07006026481786     -3.68828516567123      0.28164336225789
  C   7.28555545688123     -4.36995791625467     -0.09835545807551
  C   7.51791949483265     -4.26906391777380     -1.59162501972104
  O   8.42870785538611     -4.81161538410893     -2.15575158508395
  H   3.81991571167652     -3.24501954950758     -0.51971991744466
  H   1.70224571597139     -2.02235559871770     -0.91624091261248
  H   1.60590754013251      0.43512244673514     -0.56326643220561
  H   6.89128188445885     -1.94105369546250     -0.53306155153994
  H   6.95680690221745     -0.66674344107289      1.60467020740496
  H   7.96567819059375     -2.10545670605315      1.58977146346390
  H   5.37214560120179     -1.83606965930485      2.88958113917760
  H   5.64008655555980     -4.04983266241416      3.66355034474656
  H   7.18753336189064     -4.12414103920143      2.82375583809771
  H   4.43066974847936     -3.84981912844181      1.54921841244196
  H   5.45124639110829     -5.28688615021268      1.46596258635150
  H   7.19620154608981     -5.43673149556907      0.12763995902537
  H   8.19792760139080     -4.01984834275314      0.40857270645266
  H   6.76076476119999     -3.67881749222788     -2.14309492056640
