22
Coordinates from ORCA-job 21055optt
  Br  1.12363908536591     -0.63008392493862     -0.29603976872207
  C   2.99641843187784     -0.31218936376585     -0.19067811525295
  C   3.53219301438080      0.97033106989689     -0.26585749947504
  Br  2.37092473530302      2.43368828764157     -0.59606186736779
  C   4.93099961323976      1.17944777415286     -0.17063299503436
  C   5.72960689144701      0.02264066002774     -0.05964921140390
  C   5.18658616232114     -1.24751358510901      0.00449035154240
  C   3.79865284959854     -1.42827987273462     -0.04649031965894
  C   6.03965641745469     -2.39055781702807      0.14072486629443
  C   6.74757376660852     -3.35303034164599      0.25577280224568
  C   5.57586046920791      2.46923792160218     -0.15216227138021
  C   6.88487803774220      2.79995674357903     -0.56752770661274
  O   7.14265927183280      4.08729985881840     -0.16585978918573
  N   6.04337698973774      4.60135424099724      0.49825406101013
  C   5.14552624661258      3.66327015296794      0.48482427675196
  C   7.89131691002479      2.17736876094807     -1.33972701021399
  O   7.82996864614955      1.04252511935216     -1.85806920854908
  H   6.80190270954709      0.14263349038848     -0.03028129246193
  H   3.36566593130773     -2.41479529920269      0.01849584547842
  H   7.38821560074701     -4.19571228503864      0.34696058952724
  H   4.20560044283285      3.85147282815994      0.97859921204948
  H   8.78677777666043      2.80893558093098     -1.47408494958102
