22
Coordinates from ORCA-job 21059optt
  Br  1.04195732045166     -0.51642265166238      0.56573013245352
  C   2.89022174890140     -0.20804675345976      0.26259977769519
  C   3.43946104288945      1.07419296644595      0.26094700911080
  Br  2.29764545400779      2.56648471361746      0.47473694961640
  C   4.82567568440906      1.26525707428857      0.03112600555650
  C   5.57953759112060      0.11361215207959     -0.24381330401167
  C   5.01841757633672     -1.15180689589946     -0.25177778552311
  C   3.65897641158788     -1.33030753058117      0.01403610900891
  C   5.83445024249063     -2.30130648008528     -0.52078648773225
  N   6.47386147480196     -3.23020357379157     -0.74041773663254
  C   5.51091982459392      2.55782026177886     -0.00162071601695
  C   6.43804132952215      2.80594848414775     -1.01672648019606
  S   7.56226684344572      4.12303361182493     -0.90652509469498
  C   6.71632361579384      5.21595993336127      0.29112131218847
  N   7.03179636728529      6.45655644893817      0.29227785580556
  N   5.85972744176279      4.67824834236410      1.18882852991536
  C   5.33724220883891      3.47374668247698      1.05253513086901
  H   6.63907927710827      0.23595984829499     -0.42396852904256
  H   3.21577565191821     -2.31436458464443      0.01411816206918
  H   6.50750339993140      2.19371620257075     -1.90497737025670
  H   7.68042556158227      6.65729975343366     -0.46420430150956
  H   4.71369393122001      3.15762199450099      1.88476083132749
