24
Coordinates from ORCA-job 21065optt
  Br  3.96289374984987      2.43652412327295     -1.70001781431696
  C   4.06492214548807      0.96042373617305     -0.47211532565007
  C   4.96710302386323     -0.05782426833228     -0.63436187995299
  Br  6.19779601917770     -0.05769881567250     -2.13185269868831
  C   5.09962592831863     -1.07460928704622      0.34310554877567
  C   4.32636896931908     -0.92982569189724      1.53620674504316
  C   3.41022070888069      0.08083550092294      1.66945618937128
  C   3.21525159842246      1.02571633022543      0.64766018369760
  C   5.76307974613314     -2.38739094407615      0.06292486415005
  O   6.39911479777574     -2.90933884469274      1.26129607883531
  C   7.62781868470014     -2.48366547101369      1.52278757730823
  O   8.30939705011427     -1.78198355097413      0.83642008812753
  C   4.69734307810099     -3.38031878368447     -0.30379711896388
  N   4.00350279587504     -4.14066662689975      0.42303955845121
  O   4.27304243401432     -3.20410415340081     -1.63264170513226
  C   5.10853581049219     -3.57307551200537     -2.60418770821256
  O   6.12974433891578     -4.17840232657211     -2.46663130044937
  H   4.47931397113749     -1.63218653074429      2.34776386123693
  H   2.82619790339758      0.15702223385553      2.58040534433213
  H   2.43871534481642      1.77373178801272      0.69880390278009
  H   6.50127101623917     -2.30084421693521     -0.73121909128863
  H   7.95308050331773     -2.89096255522550      2.49128434819824
  H   4.38777399283342     -4.13099642065168      1.36593419114719
  H   4.70688638881674     -3.24335971263845     -3.56926383879959
