25
Coordinates from ORCA-job 21063optt
  Br  3.87959343095054      1.97716997777841     -2.43350059322729
  C   3.85141611732165      0.72948335990147     -1.00988556687593
  C   4.70431241707183     -0.37142669048625     -0.97457425445143
  Br  5.93841439348643     -0.68458619142137     -2.36783117503843
  C   4.61582059373561     -1.27352600471309      0.08537982688683
  C   3.68311438193263     -1.05406865088281      1.09152844399405
  C   2.85597247005769      0.05694075228466      1.06557974441801
  C   2.93733656395525      0.95017305260171      0.01172810120039
  C   5.51743867599976     -2.49359884187377      0.19664906338265
  O   6.70502520213803     -2.33656514280667      0.32071413855699
  C   4.80573813160940     -3.81323373285245      0.14233568848584
  C   3.97176350650865     -3.95407938102662     -1.14930377922472
  C   3.85793373654105     -5.46932824607403     -1.35060897003322
  O   3.03786011908318     -5.96485375076345     -2.14764223670511
  C   4.86595522218787     -6.12432756094248     -0.54976999045625
  O   5.12191432548285     -7.34007376998116     -0.46619072773989
  C   5.68296113368223     -5.05924814722926      0.19091187506514
  H   3.61129489552170     -1.76674886640419      1.90323316485595
  H   2.13864696641842      0.22444375288591      1.85820798746255
  H   2.29323781890218      1.81707608643584     -0.03285002557969
  H   4.09767758909580     -3.83121182927428      0.98000737377030
  H   4.49052567015639     -3.50030904287840     -2.00479518924075
  H   2.98880975669872     -3.48332018188590     -1.07718481282295
  H   6.63370899464844     -4.87611761139263     -0.32193264125597
  H   5.92252788681366     -5.37566333899913      1.20779455457294
