23
Coordinates from ORCA-job 21064optt
  Br  1.43875816775767     -0.09861156211571     -1.12787216377624
  C   3.25525087639775     -0.10357373709794     -0.55794417408486
  C   3.97499372478294      1.09548429487808     -0.45344288705762
  Br  3.15614835158728      2.78489160423756     -0.70629461518103
  C   5.32238828240405      1.01800069910129     -0.03620396630987
  C   5.89692962200571     -0.19956739900109      0.26002171623635
  C   5.17253610196293     -1.40987363116379      0.15935941578902
  C   3.82059517248403     -1.31944893434823     -0.26561945547957
  C   5.72320572848956     -2.70258567043371      0.45662966356362
  O   5.05669037323587     -3.76423376294930      0.40084917502482
  C   7.12527022315548     -2.74377199890597      0.83048837909554
  C   8.29059270833274     -2.78599865682350      1.13770343657799
  C   6.16737298174820      2.23395343866446      0.14633955579419
  N   6.64635186741322      2.62871057358854      1.25365583319821
  N   6.49162585921511      2.98663186350234     -0.98077779183129
  C   6.20365899586119      2.71526411444709     -2.28640354705722
  O   6.53295071970029      3.44397759307224     -3.19195569683711
  H   6.93540655500614     -0.22545375722773      0.56749221767136
  H   3.25261274309781     -2.23375685651402     -0.35901751914230
  H   9.31755922920827     -2.83447330104315      1.40596840955153
  H   6.33063313079371      2.01191734340134      1.99729954607476
  H   7.00762323520793      3.83765531571365     -0.79899814449224
  H   5.65684535015201      1.77486242701756     -2.43227738732803
