18
Coordinates from ORCA-job 2107optt
  C   1.01881833312885     -0.10559068533978      0.92023137936305
  C   2.33254179557918     -0.02350530530178      0.15131138460295
  C   3.07153358517559      1.26529380630334      0.40070746235849
  O   2.43795029685969      2.37289436715563      0.30379345205264
  C   4.51716350650857      1.27180342833149     -0.05415727754417
  N   5.25118014042951      2.47461257000431      0.35168512980265
  C   5.43689586733273      2.52371231051795      1.79580384589036
  H   0.43242876237632     -0.98764818390661      0.64384082014516
  H   0.43326358349679      0.79083985869822      0.71237257761210
  H   1.21318336385007     -0.13305362920803      1.99619782700995
  H   2.09374222869284     -0.08375705472209     -0.93764079307355
  H   2.97286412152745     -0.88139923504711      0.38146184647693
  H   4.53357846347376      1.25708060538054     -1.16741911523197
  H   5.05841311995275      0.38379758822972      0.28833446775123
  H   4.61237744219636      3.23105057069776      0.11074508002476
  H   6.06930986476980      1.68572880093166      2.10397172943716
  H   4.49505421709933      2.45696926906322      2.35415905448565
  H   5.95270130755035      3.44917091821152      2.06660112883659
