25
Coordinates from ORCA-job 21080optt
  Br  0.97734500675665     -0.12711418321146     -0.41629583615902
  C   2.87513559468410     -0.38978154010057     -0.50887794829400
  C   3.68949037158125      0.34551665707798     -1.33079216411806
  Br  2.96752955354689      1.18015715563049     -2.91414418104804
  C   5.05811329507022      0.50656073322957     -1.11971399928832
  C   5.73504260237826      0.13996665293068      0.04999920059981
  C   7.21933520474040      0.37577271078737      0.14027912189402
  C   7.97977693923395     -0.95781873544362      0.06202481631282
  C   7.53163698689358     -1.84706957513731     -1.09417825064909
  O   8.69802835478430     -2.59897809603238     -1.50554186352362
  C   9.83145320549661     -1.98706790115281     -1.11313681037052
  N   11.00170615038564     -2.30712933337075     -1.44153218149901
  C   9.46144199577421     -0.85106757424351     -0.16250492786445
  O   10.23246347475964     -0.04766197770689      0.27810818042303
  C   5.12906453280321     -0.59883954616879      1.10887772505599
  N   5.60335905962601     -0.92323473759917      2.26701699744331
  S   3.53321216649770     -1.36362582808338      0.77423749693008
  H   5.63122968135792      0.97630252733277     -1.91070188540223
  H   7.52061237267751      0.89623076586600      1.05381159892998
  H   7.53751380287143      1.00686935364927     -0.69291636694839
  H   7.84093392763921     -1.51356281979239      0.99737763501401
  H   7.18653300083615     -1.24937074374063     -1.94047957960531
  H   6.75388067452709     -2.55625832456793     -0.82525400604871
  H   10.98299029559829     -3.10150457641030     -2.08213049454267
  H   6.51417174947932     -0.49029106374217      2.41046772275843
