20
Coordinates from ORCA-job 21082optt
  Br  0.96193951886971      0.13942747474754     -0.00799300515656
  C   2.86870379361092      0.10490253461320     -0.00827240891009
  C   3.61114988814130      1.26447885931947     -0.00809431699282
  Br  2.76415924637870      2.96408905522258     -0.00750562461625
  C   5.05176800792536      1.26097474897187     -0.00826295181673
  C   5.84037568731484      2.41555836803226     -0.00823278589502
  C   6.55367703624001      3.39667389236061     -0.00818549018069
  C   5.64770768492837     -0.04400816551677     -0.00848060007298
  N   6.99480250831065     -0.36576920205836     -0.00859632177160
  C   7.00956993620122     -1.66461147923400     -0.00881643809954
  S   8.22030827081172     -2.91197341961832     -0.00923836703228
  C   6.97491536483949     -4.13544784264909     -0.00906856022170
  C   5.73550094173828     -3.61044703373785     -0.00903031542054
  N   5.74556853713521     -2.23377406583277     -0.00881032154570
  C   4.84733101272124     -1.18961511805721     -0.00865578835836
  C   3.43935812155346     -1.18518288514973     -0.00859404742703
  H   7.17155946909161      4.25962821732859     -0.00813816908439
  H   7.23417994768813     -5.17960158037870     -0.00908438951725
  H   4.80005945291007     -4.14696670422502     -0.00900018733666
  H   2.83336557358966     -2.07633565413829     -0.00893991054380
