24
Coordinates from ORCA-job 21083optt
  Br  1.72266128291482     -0.96770985554981     -0.32180732252916
  C   3.52254915216033     -0.39780014917587     -0.27223749402247
  C   3.86899243646159      0.91045296247992     -0.19507587054682
  Br  2.55626518436731      2.27869087340360     -0.14488032943654
  C   5.23224245467354      1.32052618445627     -0.15700430421867
  C   5.58207244385525      2.69100745923924     -0.07534651631238
  C   5.94064224801250      3.83906264648081      0.01172974874879
  C   6.25085478791587      0.35294706535763     -0.08214663423252
  N   7.53787669117428      0.87296609744005      0.13751642364684
  C   8.54127133271828     -0.05357039290345      0.35454469201962
  C   8.67363129847429     -1.00431639799379     -0.58362132266214
  C   8.23204839865367     -2.32562739939078     -0.06055918735985
  N   8.96871815165879     -3.34902861505971      0.20214750996630
  C   6.80060540812612     -2.18264784232313      0.10083920671685
  C   5.95297073424244     -1.05672324908623     -0.12438716322605
  C   4.54086196608579     -1.42899726164148     -0.42420658206509
  N   4.15867806037003     -2.60116024534487     -0.81925253489340
  H   6.22274542281369      4.86162796383588      0.06628501309672
  H   7.55716599652063      1.78536982635542      0.56882068871635
  H   8.89917065157150     -0.19201020877720      1.37361181598373
  H   8.26956205543268     -0.75426240632927     -1.56093936600372
  H   8.38289010306203     -4.08594905148612      0.59975729464513
  H   6.27789663059467     -3.10825389915365      0.32593343127440
  H   4.96562710813981     -3.19259410483342     -0.98972119730591
