22
Coordinates from ORCA-job 21089optt
  Br  0.96686447761401      0.09453839815173     -0.37010091514017
  C   2.82958643964958     -0.12462177940342     -0.15508463176103
  C   3.47217045888935     -1.31706840304737     -0.12452686070733
  Br  2.50493542132243     -2.93173769730022     -0.31065930579015
  C   4.90013663986482     -1.39231487492573      0.01959725200438
  C   5.58536357833973     -2.60851008412667      0.15437815678096
  C   6.20928931661242     -3.63760536960258      0.27329629846906
  C   5.57734692894047     -0.14398773569978      0.03582727401565
  S   7.28703841714732      0.12456481831920      0.14840971534393
  C   7.08003242027489      1.94046526567103      0.10237255610451
  O   8.04246663027648      2.70108562983364      0.14458651527720
  C   5.69843950554977      2.21933141999919     -0.00100238923465
  C   5.21682514631964      3.63485675846917     -0.12649250495643
  C   4.18024299693886      3.99619385943366      0.84498011809335
  C   3.30832808853695      4.24896174920582      1.63060660497870
  C   4.90511452488320      1.07041136954992     -0.03055026608881
  N   3.51452847096987      1.08247006937348     -0.12549125940028
  H   6.75271241008805     -4.54354536774676      0.37890460523926
  H   4.82041469152547      3.83949663463914     -1.12870620473913
  H   6.08478677327063      4.28452825367483      0.01180124227324
  H   2.55075086220528      4.47407987183897      2.34121109768449
  H   3.03262580078070      1.88340721369273      0.26264290155325
