23
Coordinates from ORCA-job 21084optt
  Br  1.13071580563246     -0.06860945294963      0.42356009310057
  C   3.00057710505307     -0.02907330426457      0.20333932160715
  C   3.70580724869679      1.12388359504457     -0.04283371314979
  Br  2.77789595820247      2.76709153516586     -0.22704430624626
  C   5.11093335314472      1.14542943765682     -0.15538306348717
  C   5.78942115484351      2.37746266812549     -0.34668757451223
  C   6.28158746688475      3.46180211275195     -0.51526904293364
  C   5.81017717191520     -0.07857935462542     -0.00953422088923
  N   5.05661347830485     -1.27360575349542      0.08463479161163
  C   5.67212447095973     -2.54494570466119     -0.25378447503905
  C   7.17883405841034     -2.52202399685479     -0.32772320997719
  O   7.77626714099940     -3.28484079358813     -1.04897498529398
  C   7.79806925055894     -1.50851849068530      0.56527023822461
  C   7.22740610799207     -0.13995629708133      0.16496575661215
  O   8.01266907762898      0.80426897182865      0.03509770255060
  C   3.66369396513933     -1.31832272312626      0.22255142782320
  N   2.97623800355464     -2.40488790532690      0.30813581008690
  H   6.74994060984580      4.40393679269282     -0.65669560770534
  H   5.26781362879393     -2.93527693346223     -1.19172888036918
  H   5.45485171840643     -3.27952209146315      0.53205800255848
  H   8.87912634383012     -1.49065378237617      0.46345233380873
  H   7.51411802285218     -1.72268083502039      1.60266380464238
  H   3.54911885835021     -3.23737769428526      0.28792979697667
