25
Coordinates from ORCA-job 21087optt
  Br  2.57776087819706      1.48768274918043     -1.87374829098774
  C   3.55099548197973      0.54218948811097     -0.55759891837819
  C   4.28570006088089     -0.59740239104394     -0.84639344030986
  Br  4.36509182358968     -1.29044658344354     -2.59691154068920
  C   4.99183239745532     -1.23743034628854      0.19375542091914
  C   5.79000194220315     -2.48545647196360     -0.02268918416335
  C   4.90458535513724     -3.73900152730376     -0.01915339206024
  C   5.71336463962892     -4.97213035006790     -0.34833250791079
  N   5.46754217236928     -5.98691004000652      0.43817046145167
  O   6.17165780134318     -7.18110870393355      0.11950076783266
  C   7.11662060918114     -7.19628341269067     -0.88344833595920
  N   7.78551556830206     -8.28229798921349     -1.07732497599351
  C   7.26643048806445     -6.00524882880068     -1.63517150029372
  N   6.55613655876942     -4.88420468210147     -1.38423499738376
  N   4.95061295697131     -0.75532142852776      1.43633455218520
  C   4.23891432492368      0.33325391850790      1.69680499382535
  C   3.51961768093935      1.02559790652070      0.74179377863186
  H   6.51529098951771     -2.55727505496183      0.78695224429498
  H   6.32899815536327     -2.45995325015697     -0.96934820618501
  H   4.11403589201047     -3.62607137697336     -0.76758168205896
  H   4.43166039343948     -3.86893042377727      0.95455722761142
  H   7.48156027213303     -8.97746473909456     -0.39775081795641
  H   7.98941623878931     -6.00540313011929     -2.43899885251968
  H   4.24356258989862      0.67583624070999      2.72615429383262
  H   2.95309472891208      1.91078042743881      0.99066290226472
