23
Coordinates from ORCA-job 21094optt
  Br  0.44439193487009     -1.19821380862748     -0.97180995342026
  C   2.85915947930037     -0.35998041990145     -0.74357762092387
  C   3.37404536914268      0.88217645765895     -0.99720775731025
  Br  2.24046412542677      2.13489948895347     -1.94149516680414
  C   4.66642266386801      1.28721839337227     -0.61438421283181
  C   5.14325071881559      2.72114552859283     -0.70349696040080
  C   5.66282862323982      3.20862376911454      0.57385552560190
  C   6.08019112935577      3.59843487894780      1.62792396643739
  C   5.43829555454855      0.27508471321573     -0.04955754265719
  N   6.77189350885258      0.25754024079022      0.44409008882940
  C   7.87460163289422      0.98894749461374      0.04143728559878
  O   7.88178913419627      1.81436166020339     -0.83048760670512
  C   7.01919757597919     -0.98047056198330      1.09546857668018
  O   8.05350333430724     -1.31371772503171      1.62885611276054
  N   5.87411601711807     -1.69788314927727      0.94521335133068
  C   4.89460091666535     -0.97522574334006      0.25339185969796
  C   3.59836977571097     -1.31425777727569     -0.07071239218804
  H   4.30321671771911      3.34782652328159     -0.99616119319430
  H   5.92104688385767      2.82564515966875     -1.46001613929240
  H   6.44881599418759      3.94559473773826      2.56220699740864
  H   8.76322290634629      0.68975077952705      0.60976212570464
  H   5.77269176384500     -2.62232475867315      1.32488310632819
  H   3.16388423975241     -2.27317588156855      0.19081754934990
