21
Coordinates from ORCA-job 21095optt
  Br  1.05551697070140     -0.17924111964273      0.34388738425124
  C   2.90312112086958      0.10383341882925      0.09527964856654
  C   3.53302568827522      1.30326715612104      0.16621630447154
  Br  2.53563099229965      2.89281377930970      0.40875489608530
  C   4.95036859322421      1.37091047029997      0.03911548944052
  C   5.57879423728440      2.62164141911890     -0.11648175868949
  C   6.10909420968473      3.69585923264624     -0.26760453503832
  C   5.69579665600289      0.13724338221703     -0.01811869938996
  C   7.12829369191038      0.14425682431116      0.08628523964050
  N   7.85965094173964      0.90835126990839      0.82075426579247
  N   9.15675926667176      0.60824325217701      0.43283547237089
  C   9.18603521903451     -0.45591011538555     -0.43034187105242
  N   10.13721811960968     -1.11485054121051     -0.95825579945402
  O   7.88440114979972     -0.70453313601675     -0.70386165004069
  C   5.03330846593762     -1.12637055580220     -0.09306286089928
  O   5.53143020989305     -2.24625384428687     -0.10612197537310
  N   3.62546269804381     -1.04835821918812     -0.14000338424001
  H   6.58254809693801      4.63854656440484     -0.38654829867170
  H   9.89980819456403      0.82928870194753      1.06937072354694
  H   11.02840975273967     -0.75481196984435     -0.63211932341051
  H   3.16232572477597     -1.94192596991397     -0.10397926790644
