24
Coordinates from ORCA-job 21100optt
  Br  1.05260450396818      0.34978750488764     -0.27994553654577
  C   2.94057486414925      0.11541066569832     -0.14155754916751
  C   3.52914213125643     -1.15266467692564     -0.26282956273796
  Br  2.41322484613663     -2.67299735394810     -0.52808372066211
  C   4.93657403438242     -1.31500352453007     -0.18797345024154
  C   5.59291695914807     -2.67034891186841     -0.20727142314269
  C   6.17456740532529     -3.03659656376842      1.17009460669887
  C   5.14690608947267     -3.23320343513637      2.19028093951213
  C   4.28505782049671     -3.38033505697397      3.01102299645633
  C   5.67344726567355     -0.15247057951371     -0.01056634408277
  N   7.04074097705428      0.13664501800952      0.12387700115250
  C   8.19002647740136     -0.53295778138292     -0.14151767513130
  O   8.31308642303710     -1.66794594331189     -0.58033696348099
  N   7.19440160884373      1.52154151006414      0.43935078113849
  N   5.98899036709029      2.05575460754827      0.44983075501497
  C   5.07318902197798      1.12148309664306      0.18253393996882
  C   3.67387850491737      1.25379235014212      0.09331762786782
  H   6.42197325179659     -2.66370382496548     -0.90824395490845
  H   4.88220061893561     -3.43432229534057     -0.50712716942662
  H   6.85717632801082     -2.24942864107570      1.49532045602542
  H   6.77180213564132     -3.94614381792475      1.07553407087558
  H   3.51182404282843     -3.50007312079545      3.72991492823081
  H   9.04740158566177      0.11204058471462      0.09017096689309
  H   3.20029273679399      2.21674018975381      0.21020427969284
