28
Coordinates from ORCA-job 21103optt
  Br  1.01705833393980     -0.12846637576715      0.56594074532528
  C   2.87817063767479      0.06930374863315      0.33437622707753
  C   3.54837627524838      1.24312756028008      0.35921880960839
  Br  2.63396260458402      2.87544295731880      0.62957886379740
  C   4.97044539078081      1.24884139964714      0.16413708909850
  C   5.68325585024041      2.45836809141005      0.15639967796222
  C   6.34141509888334      3.47815317565996      0.16013805741805
  C   5.64959650149506     -0.00368811741941     -0.00076606967519
  C   7.14202880882228     -0.00375663319884     -0.15111122129714
  C   7.89456663919689      0.16776816680599      1.17718504126368
  C   7.70924312078814     -1.02381064644216      2.10738164466229
  N   8.19187367519071     -0.72880812319409      3.45133273520618
  C   9.17905463156354     -1.38144218370166      4.08810428951158
  O   9.79861073120292     -2.33842452830935      3.67196920529532
  C   4.93564678966141     -1.22892518622203      0.00648512347981
  N   5.35283911655618     -2.46383043942473     -0.03967318168173
  N   3.53109211950887     -1.11791162839306      0.07496982698501
  H   6.89558792150567      4.38315758932811      0.12595327671359
  H   7.43511657433578      0.82197381598855     -0.80512289120002
  H   7.47595562053138     -0.92289671531188     -0.64156909867811
  H   7.51238794981075      1.07126204868646      1.66233471794060
  H   8.96335302863398      0.32271593706870      0.99916142724312
  H   8.26532185637939     -1.89328042316604      1.75795904206060
  H   6.65322107970264     -1.29829748819014      2.15366253619059
  H   7.79143312809626      0.06732202610104      3.92073292061430
  H   9.38450863894933     -0.94665035216051      5.08265658069988
  H   6.36454462375423     -2.49482637457670     -0.08623403080064
  H   3.06033325296271     -1.98942130145030      0.25779865517884
