29
Coordinates from ORCA-job 21117optt
  Br  0.82447946271408      0.02883573518234     -1.40064011887996
  C   2.87510953782912      0.13102390202556     -0.00431220696270
  C   3.69174457633829      1.23526132726279      0.00747131226115
  Br  2.90599646854351      2.99286669689441     -0.10321070524608
  C   5.07351861110222      1.11053467032988      0.13514131848691
  C   6.02239308812534      2.27868365213932      0.17755590702064
  C   6.13780556452109      2.85157401512766      1.59384845034495
  C   6.82771143770964      1.88688277318865      2.56822868602778
  C   8.24653328590581      1.73327588614593      2.24881861742622
  N   9.35775008638838      1.65282938728653      1.97531040530839
  N   5.62798063871631     -0.09661662653095      0.29227551680628
  C   4.84786629539903     -1.17935089349873      0.32577905496839
  C   5.53917952196183     -2.49682923189354      0.59495604673246
  C   7.04816841016455     -2.39264919801582      0.41345883803448
  C   7.66422954951546     -1.44213736496214      1.41300413012232
  O   7.41480245596182     -1.47480815571140      2.59201892702871
  C   3.47182424190511     -1.10723494722600      0.15175359152059
  H   5.68315136046590      3.06438462243706     -0.49599375922758
  H   7.00191706252676      1.93259948222415     -0.15925551302144
  H   5.13751097227981      3.06867314209135      1.97251206520340
  H   6.69104032408276      3.79275788682193      1.57045254185140
  H   6.37078937161301      0.89554879443810      2.53452276046740
  H   6.75734352706600      2.25339778409760      3.59332820324665
  H   5.12628177392831     -3.26812563715047     -0.05784143493706
  H   5.32901449067753     -2.80211494180181      1.62361245980773
  H   7.29454752311900     -2.05641900575492     -0.59375162846953
  H   7.51301092046835     -3.37099999506714      0.57349187583874
  H   8.40583648111960     -0.72504475801317      1.02263586771294
  H   2.87346295985108     -2.01279900206717      0.13482879052674
