28
Coordinates from ORCA-job 21111optt
  Br  0.83062810980990     -0.38637429242097      0.84153783225909
  C   2.53403902722015     -0.63566440612545     -0.05928814959224
  C   3.46425926361584     -1.53014710503239      0.40188967346770
  Br  2.87658783031218     -3.16267389057111      1.28668803368926
  C   4.83903983018112     -1.39125091989977      0.23158510885057
  C   5.47793214861866     -0.23480699599062     -0.22372428904803
  C   6.97170320900763     -0.04830786943926     -0.06134169504421
  C   7.23352838084244      0.81543190268725      1.19024201191384
  C   8.67266499947106      1.25939321043391      1.42199828303670
  C   9.23811305636059      2.19760351321975      0.39318649611849
  O   8.62644725238918      2.69619645920686     -0.51027096854474
  C   7.77254667363870     -1.35804298002866      0.02785176475850
  C   7.66055944705872     -2.19969223257235     -1.16019615935109
  C   7.58751635915179     -2.87514610743209     -2.14727215206526
  C   4.76749999763810      0.88415732946148     -0.77113547182634
  N   5.19505736830581      2.03740009451188     -1.15527369506162
  S   3.01322953772643      0.65751929373426     -1.11037254489899
  H   5.44123533588202     -2.25296487599989      0.49172200915130
  H   7.35031175168070      0.48789827550967     -0.93726617911051
  H   6.89116217218339      0.25037629165550      2.06195430373778
  H   6.59976461497765      1.70167639843181      1.12402815455402
  H   9.37196292799519      0.42175032522643      1.51580141586232
  H   8.75986068594835      1.79390270917761      2.37741040301895
  H   10.31359926684395      2.44006613225267      0.52907861560708
  H   7.46840410823221     -1.92993552411899      0.90931811346150
  H   8.83164869595049     -1.12504913199945      0.16177834473725
  H   7.49384074149553     -3.46863597493247     -3.02375225553761
  H   6.20285720746170      2.12832037105441     -1.03817700414372
