22
Coordinates from ORCA-job 21121optt
  Br  1.21616200608990     -0.04819717418768     -0.35363186120463
  C   3.10887983666016      0.08811991558051     -0.20621174800017
  C   3.75896756123209      1.28750939161174     -0.05393133584610
  Br  2.80972096051347      2.91936018593612      0.06771074070360
  C   5.16692372478613      1.30733740672728      0.02191687685336
  C   5.87263598253896      2.52422373336721      0.13574962531356
  C   6.50164741311160      3.54973407447071      0.22673288708807
  C   5.87710060763435      0.04982464191260     -0.02887265064535
  C   7.29045331849693     -0.02101671685533      0.07172151445487
  O   7.99474010241436     -1.05874545798666      0.04582990970779
  C   5.05512961171662     -1.12203410829463     -0.17820474089376
  N   5.70617812570783     -2.33408265538650     -0.22307504218205
  C   5.15162200978148     -3.59325832263002     -0.36211918245819
  N   3.93683718891049     -3.94158224879403     -0.49853880364885
  C   6.17828323488941     -4.62728151721679     -0.33427276024013
  C   7.04315829143779     -5.45450488735394     -0.30303901155722
  N   3.74811754052124     -1.09635714400458     -0.26977359863296
  H   7.04291878798887      4.46056807248241      0.30162066495251
  H   7.79264412173608      0.94975536984724      0.18444572048189
  H   6.72715664039206     -2.23799710947612     -0.13589989570681
  H   3.34608316289383     -3.11052249609459     -0.49358905528067
  H   7.80963977054622     -6.18985295365495     -0.27356825325874
