20
Coordinates from ORCA-job 21124optt
  Br  1.09489259351514     -0.16808701405027     -0.21193323901221
  C   2.98883079483269     -0.00426698558394     -0.12365018478090
  C   3.59732283968063      1.24365209333859     -0.16183736364186
  Br  2.64422933027101      2.85416795673036     -0.32198502586131
  C   4.99584713722913      1.25712118091662     -0.08618637638955
  C   5.69267943479711      0.06451895391107     -0.00006107026299
  C   4.97981239447926     -1.13611801385284      0.03296986253949
  C   5.68576083410901     -2.44609754337158      0.09581898357941
  C   6.59895134780135     -2.65460590344771     -1.12736627648446
  O   6.87873722220624     -1.71412285533312     -1.88199675000449
  C   7.08015884037454     -4.00162787590011     -1.25214954220182
  O   6.82734732029801     -4.92193674966944     -0.42856601469730
  C   7.91014192047931     -4.27483749182274     -2.42243696995823
  N   8.56314202097264     -4.54658952019196     -3.33120960747848
  N   3.64872554167707     -1.13441802550789     -0.02676209335294
  C   5.71892701886598      2.49918276556745     -0.09037202605454
  N   6.31100742955602      3.48123129404004     -0.07167998322367
  H   6.77229262155805      0.05678912638653      0.02183547644048
  H   4.97089354992778     -3.26235223810285      0.17047902820232
  H   6.31529980736893     -2.49660315405624      0.99008917264304
