23
Coordinates from ORCA-job 21123optt
  Br  0.98788784167418     -0.23251919435429     -1.09913269155615
  C   2.77720478708232     -0.00159180147909     -0.54072922088300
  C   3.39454313867239      1.19337304479364     -0.37276745339125
  Br  2.44983176534937      2.81392485463952     -0.61683837970239
  C   4.77909962897912      1.22752048305104     -0.02656583301112
  C   5.40430132721874      2.44918940736734      0.27930807708463
  C   5.98887310678193      3.47523648573252      0.54563167389806
  C   5.50557059085349     -0.01103547018302      0.04040313357771
  C   6.95666109013776      0.02571149871499      0.31644380009443
  O   7.21924330874785     -0.31417153948612      1.74345412217591
  C   8.34631144795304      0.12709535659163      2.26652271878017
  O   9.21246367556771      0.74587808763511      1.71210229613037
  C   7.77703733270665     -0.86370478839820     -0.51322025397487
  C   8.46029351131241     -1.56141782147920     -1.20828541373833
  C   4.82566934661446     -1.26836544977461     -0.04579434070058
  N   5.24763298149856     -2.47365170581919      0.15024902655861
  N   3.46592653673309     -1.18417856530496     -0.39171986368146
  H   6.49079455394079      4.38286611136260      0.77278501751824
  H   7.33002520751139      1.04048988831480      0.18090698345686
  H   8.39043361485916     -0.15459717195863      3.32945133915663
  H   9.05185598971283     -2.18842308511777     -1.82903664346741
  H   6.22568010731627     -2.47221312056441      0.41503322442295
  H   2.95865910877637     -2.04941550428370     -0.29720131874802
