28
Coordinates from ORCA-job 21133optt
  Br  3.08025744801229     -1.89291837087016     -1.60248913255191
  C   4.21562196799297     -1.02800149958287     -0.29361904416202
  C   4.76222368323088      0.21420812810163     -0.51869620011178
  Br  5.18961277114979      0.70846124050261     -2.35692881639171
  C   5.07134710505196      1.12829598569939      0.49739035048073
  C   5.90857194246131      2.35293227365743      0.22521969272565
  C   7.41265565608614      2.05431557152869      0.03876638223383
  C   8.18242994839297      3.34423656058777     -0.20713196087664
  N   9.58416520331843      3.10980467106394     -0.48422092830478
  C   10.39539801846971      4.09694441488971     -0.96332110224194
  N   10.09504679089698      5.25645385973164     -1.39566101481548
  C   7.94779063147822      1.25543031579433      1.19880034786302
  O   8.95440669056306      1.53469331927066      1.80785733142750
  C   4.65678917619320      0.93266393851513      1.81757191872448
  C   4.07678056857496     -0.25016404314007      2.35866754214008
  N   3.62040680629101     -0.47190347498242      3.54184992318537
  S   4.11042663088892     -1.70199333491192      1.30209808930472
  H   5.79433343672484      3.04713391158803      1.06163577977158
  H   5.56430915924712      2.86463286761869     -0.67515434746994
  H   7.50668672551681      1.40287036532269     -0.83960592132324
  H   8.05889376859117      4.01653065731137      0.65281960355710
  H   7.73591691746219      3.83543947734119     -1.07497040587332
  H   10.02069005256538      2.43485264161894      0.12584540649419
  H   11.44416544712654      3.79932915436702     -0.98616499767395
  H   9.09727261295000      5.44282082285407     -1.31078590962790
  H   7.35934315140715      0.36202246835684      1.46575668968655
  H   4.81682210878536      1.73848813666055      2.52742508654433
  H   3.71663558057050      0.37541994110508      4.10204563728548
