22
Coordinates from ORCA-job 21142optt
  Br  0.88541243163300     -0.04883532900175      0.83980048797843
  C   2.58630405699248      0.24950191218192     -0.04188648466665
  C   3.47390814223954      1.19222366525862      0.41336977956252
  Br  2.81443057328751      2.81121605057686      1.26069277698147
  C   4.85174318659869      1.10624538129090      0.24589985986068
  C   5.53428965821421     -0.02164951046068     -0.21262827430822
  C   7.02818363599177     -0.01905449696488     -0.20354963197246
  C   7.71473174105286     -0.80296626376741      0.89887933808604
  O   7.16116853122008     -1.34993954091300      1.81175262180651
  C   9.23979981433692     -0.86019506265797      0.80215014703125
  C   9.73353284158246     -1.89975561706982     -0.17030532405143
  O   9.03682532444794     -2.56944676181751     -0.87794605867713
  C   4.88674946066732     -1.17884609274134     -0.74986747087022
  N   5.38392123576033     -2.29428046791241     -1.15261103073135
  S   3.11882737876109     -1.04328171272742     -1.07150302293351
  H   5.43931731643064      1.97863451635252      0.51164482555412
  H   7.40329907608764      1.00837308372204     -0.10943987378370
  H   7.44529753315189     -0.40223287162498     -1.14721621212698
  H   9.65818084437737     -1.09339927467245      1.78446605707567
  H   9.65858834102936      0.10104608335917      0.48337272562132
  H   10.83564494697460     -2.02047224754974     -0.19808321076598
  H   6.39184392916216     -2.32988544286064     -1.00499202467039
