25
Coordinates from ORCA-job 21144optt
  Br  6.24141728016936      2.33591381074487      1.52510692394549
  C   5.23773329883848      1.03987139237572      0.51654036734758
  C   4.11138736327315      1.41172494308395     -0.16824675402419
  Br  3.45459574077993      3.18669980129650     -0.17780570446142
  C   3.38529507853114      0.41679875459995     -0.91490024368107
  C   3.94105226780000     -0.90382753468991     -0.85072816215516
  C   5.06860303643800     -1.13871924859824     -0.12905307116162
  C   5.71721202216764     -2.48501881924068     -0.00793633584855
  O   4.98707784511653     -3.46047793038595     -0.76398685219301
  C   5.44397677499173     -4.69592021162554     -0.75366667973692
  N   6.47659204315416     -5.08755203671484     -0.14030971896816
  C   6.80318868161886     -6.48583259088824     -0.24639381464421
  C   8.22382959840194     -6.68168253524184     -0.72964922315984
  O   8.65342988215715     -7.73724674265617     -1.10680753822329
  N   5.75512817441547     -0.18783423932620      0.57301965183007
  C   2.23092127892066      0.67569469139076     -1.65504728254661
  C   1.22406472107481      0.85533413728198     -2.31210269029541
  H   3.45084243997745     -1.70703005285768     -1.38197693033670
  H   5.75500442603902     -2.80247453982329      1.03695905822060
  H   6.74659210541109     -2.44908133409167     -0.37211747733729
  H   4.80369818113468     -5.35066977489117     -1.35338055981896
  H   6.14103524931602     -7.06397689029516     -0.90526458214043
  H   6.75546292430448     -6.95292244583509      0.74460722842414
  H   8.85441227109711     -5.77318110871107     -0.70470543036413
  H   0.34644731487101      1.02941050509911     -2.88315417867089
