26
Coordinates from ORCA-job 21153optt
  Br  3.02874232590908     -1.39780383530787     -2.25074830117954
  C   3.69905826394124     -0.60534130798749     -0.63448324035152
  C   4.54657383390843      0.47489775330500     -0.71291383053036
  Br  6.19706681031928      0.90197607008635     -2.70683764039586
  C   4.97821081211081      1.04313542963250      0.47871608768299
  C   4.54078058378667      0.48228048208558      1.67742281727697
  C   3.69326612271112     -0.61487505040902      1.62064960630639
  N   3.26282625357199     -1.15860998031043      0.48367948558297
  C   5.85506358571097      2.26529502073481      0.37838080427747
  C   5.21546661941982      3.43678734047824     -0.39054879775143
  C   3.76467126850830      3.65893384991312      0.06086585793456
  C   3.19967130231770      4.89227757763265     -0.47999076429521
  N   2.78313047242221      5.87711903252024     -0.89495027268181
  C   6.13877209293918      4.56939573407707      0.02468788647160
  O   6.50458147772175      4.27615886270063      1.38215593329953
  C   6.36396368907486      2.94263615596795      1.62881522346229
  N   6.65969836896311      2.41883552738879      2.73598480258490
  H   4.86769129656927      0.87836532399798      2.62836656457144
  H   3.33697226840049     -1.08055616909562      2.53330210646366
  H   6.73431286171758      1.96891763144450     -0.20916562786143
  H   5.24853223814066      3.24330153635265     -1.46164737215212
  H   3.70109546848067      3.70917956105317      1.15217645887707
  H   3.15133910222534      2.81708497033758     -0.26361530882953
  H   5.67653675931792      5.55550559023283      0.00986812011121
  H   7.04035019048692      4.57809375473082     -0.59177663899618
  H   7.01962593132425      3.13200913843778      3.36960604012186
