21
Coordinates from ORCA-job 21160optt
  Br  1.08798245387252     -0.00981929444881      0.12231300954811
  C   3.00840226504946      0.13249288590172      0.09669802186822
  C   3.60506285378753      1.38487105980029      0.04815763257993
  Br  2.64603488188887      3.00236099075160     -0.07855658074128
  C   5.03981026643512      1.41185682500680      0.07105715127222
  C   5.71495335089306      0.21302445723706      0.10506843951061
  C   5.00444368967563     -0.99940952322817      0.12084735059248
  N   3.62957774453039     -1.01040534058965      0.13630465978696
  C   5.67200724826290     -2.24574786123662      0.11752751371977
  N   6.99641552325978     -2.42048348742915      0.09802105693336
  C   7.30465873295877     -3.72073144431160      0.08130116297089
  C   6.25834544362405     -4.62236545666823      0.08842456891414
  S   4.75733701150304     -3.73601976586045      0.12028284396980
  C   6.32477405011898     -6.02461859324438      0.06273462412623
  C   6.37105176305739     -7.23011668802482      0.03809020449604
  C   5.77342005269614      2.63322829618514      0.06396344955621
  C   6.41286613433559      3.65164249838520      0.06111084018466
  H   6.79573946250603      0.19022851597572      0.11682760258506
  H   8.34222629633610     -4.02913492271146      0.06082432954257
  H   6.41287648611752     -8.29094805217721      0.01318980110272
  H   6.97501428909105      4.55309490068704      0.05981231748131
