22
Coordinates from ORCA-job 21167optt
  Br  1.81830593849178     -0.58241632480991     -1.88324605828149
  C   3.47806348210288     -0.29594180525321     -0.95470671749913
  C   4.04900066392936      0.97006226725957     -0.90555748294467
  Br  3.09653804018696      2.47451890900777     -1.52577480611316
  C   5.28580672766608      1.12606691894101     -0.20985758927438
  C   5.73542061916645     -0.02574435164450      0.47242950694525
  C   5.08154545838108     -1.22654404917047      0.34022938840857
  N   3.95525095791933     -1.38287624370742     -0.39893828529326
  C   5.61029981982228     -2.40051066333945      0.97815571919922
  C   6.07682091102231     -3.36726485055115      1.51651217929431
  C   6.05233647885226      2.33931901533782     -0.09095178859109
  N   6.56913633513926      2.53128569787518      1.13788984568646
  O   7.51271342279842      3.57680150620777      1.28177467510158
  C   7.68069494586952      4.45926958063758      0.30246628135881
  C   7.13090010106010      4.36811238067504     -0.91059947042686
  C   6.35032857754732      3.18066344961982     -1.24627574804672
  N   6.03459882935950      2.83290790789198     -2.44386891676040
  H   6.63604638334481      0.04056007682228      1.06526071918456
  H   6.48972994391790     -4.22661884733878      1.98505923218057
  H   8.34268465202844      5.26216291398672      0.60737614135214
  H   7.34084536768287      5.11507091513617     -1.66400971321001
  H   6.35193234371100      3.54311559641615     -3.10236711227029
