28
Coordinates from ORCA-job 21165optt
  Br  4.72114914128499     -1.70625880996275     -2.80845084783939
  C   4.27994296171360     -0.54844015359566     -1.34153273807024
  C   5.00853654478474      0.60169640554389     -1.14732093279867
  Br  7.50726542321177      0.87763552980577     -1.94202008573137
  C   4.65369992847460      1.41071089083952     -0.08072393129574
  C   3.58740643754160      1.02025949918969      0.72657744492932
  C   2.93265576751741     -0.16432127981069      0.42757673017724
  N   3.26497372942149     -0.95005130919420     -0.59553220192230
  C   5.40086500895440      2.69358758408071      0.14341149121195
  O   5.07672752462001      3.25011743684807      1.42940776117075
  C   4.83677997737227      4.57509382520415      1.36488348463389
  N   4.62424544340708      5.30408631573835      2.37342569752972
  C   4.85739185095130      5.05853565144911     -0.06163646421496
  C   6.07082520553199      5.95640902894139     -0.38638781103152
  C   7.05337239810639      4.98503697990703     -1.03871416500810
  N   6.16313917056234      4.13045571209669     -1.81234376965672
  C   5.07282214501816      3.79212326520067     -0.91341382053527
  H   3.28310187939327      1.61995005770900      1.57439327225557
  H   2.10165394790060     -0.50378648014674      1.03684143288742
  H   6.47072680653056      2.47542490675370      0.12123078540877
  H   4.68180553716370      4.74683720918828      3.22481090241192
  H   3.91935604237601      5.56980750935214     -0.26541743582544
  H   6.45580870458455      6.45210311388818      0.50357797593310
  H   5.77454266942987      6.71406518441910     -1.11142617769972
  H   7.61232044756979      4.43384372632687     -0.26635391275953
  H   7.77753721838366      5.47759258890420     -1.68761975354406
  H   6.62336413542434      3.29061877562993     -2.16253673367991
  H   4.19198395276909      3.49486683569337     -1.48170619693666
