22
Coordinates from ORCA-job 21176optt
  Br  5.16692932768873     -2.56010987428208      0.69539684799106
  C   4.37429835072847     -0.84852430218511      0.30724752655013
  C   5.11703088080727      0.31365342712194      0.41491714791524
  Br  6.89919640158497      0.25970200643835      1.04335559590514
  C   4.48246579473860      1.56859907863778      0.11605997889270
  C   3.11432408388530      1.44978656571998     -0.27679909086437
  C   2.50096849286211      0.23215306810421     -0.33764144779291
  N   3.10647288994000     -0.93871588330860     -0.05169889182851
  C   5.13387000756257      2.83743195718638      0.15049784181303
  O   6.35484083419783      3.07212648192625      0.18197254655122
  C   4.24558776675541      4.10705264065611      0.10067576848819
  O   4.84138932654781      5.09158130490954      0.96225105119831
  C   5.60493067246852      5.92214665948055      0.24233495870677
  O   6.34604349364142      6.74887415266879      0.68554268639601
  N   5.30746333091090      5.71566286559034     -1.09769851564760
  C   4.36292159138601      4.72580796693333     -1.27386766644214
  N   3.73566536361143      4.35514255875513     -2.30741579057312
  H   2.56281762958484      2.32006877520826     -0.60408122754414
  H   1.46492795512895      0.15966929586822     -0.65108419734652
  H   3.21779124396657      3.95982618757896      0.41396808222161
  H   5.77293784275933      6.23452290346814     -1.82152510539204
  H   4.02212671924288      4.87854216352351     -3.13240809919805
