22
Coordinates from ORCA-job 21174optt
  Br  1.01405825056030     -0.05197293023539      0.24999190039304
  C   2.91626471388938     -0.06213335921523      0.02343274152675
  C   3.64636868878565      1.10405731034241      0.14835284242614
  Br  2.84319176881389      2.76362302779987      0.52688790188091
  C   5.07592143288043      1.08020310125523     -0.01365903289383
  C   5.58887141528560     -0.21978288933933     -0.31847801589087
  C   4.73759442231567     -1.29021855490890     -0.42505714914485
  N   3.40758546848954     -1.25490539013515     -0.24882808179614
  C   5.28751559122269     -2.58893777910235     -0.75784199759158
  N   5.74428938187513     -3.60894806559967     -1.01873252911659
  N   5.76902504604221      2.19949036048946      0.05939389358476
  C   7.10501647056460      2.23749080449244      0.18175988616620
  O   7.61993232683387      3.36613899677615     -0.43769138854944
  C   8.95661812896896      3.63666478211704     -0.32122685403573
  C   9.81337548027544      2.84427121277242      0.36595403236848
  C   9.33219343383490      1.68625003815518      1.00477686577413
  C   7.95117965712130      1.41346859878345      0.88673960447124
  H   6.64552671090720     -0.35092828266969     -0.49943648273606
  H   9.22639131027539      4.54458404974880     -0.83825312581766
  H   10.85568164653677      3.13132989304324      0.40866428151664
  H   9.98311220066533      1.04201756994920      1.57643334938230
  H   7.50928645385568      0.56623750548079      1.39181735808216
