21
Coordinates from ORCA-job 21177optt
  Br  1.08413894251707     -0.77543746376353      0.11757293039327
  C   2.88282873349542     -0.23465342465658     -0.23161140741488
  C   3.43150922278254      0.88156070993422      0.40523539243579
  Br  2.46945470271428      1.87972979323268      1.67550158555466
  C   4.74727217362869      1.21924564878227      0.10478657986026
  C   5.43858067685017      0.40009260932737     -0.78240363891321
  C   4.79575679938677     -0.67470494165001     -1.35958087682424
  N   3.52807454993527     -0.98659823897422     -1.09001664138436
  C   5.50803087040286      2.36409755290541      0.73708794365084
  O   6.49773713384430      2.06327317948826      1.42924460603153
  C   5.03762348184774      3.67459601806010      0.37152755651678
  O   4.05740579326732      3.83736880328203     -0.39853956831658
  C   5.74449471141979      4.90887755662686      0.83540964118797
  N   5.50280916460123      6.07049589575896      0.42118967283987
  O   6.80656844025991      4.74694476977156      1.71913205541043
  C   6.53051090826432      4.22273277097272      2.92128565155907
  O   5.45106726139934      4.16433589126803      3.42547126298777
  H   6.47356555158606      0.62211207145611     -1.00607449252629
  H   5.30433322939454     -1.32037768285068     -2.06665469480368
  H   4.74060623242266      5.97481696617163     -0.25421650726337
  H   7.46163141997962      3.90149151485679      3.39865294901834
