23
Coordinates from ORCA-job 21185optt
  Br  1.07795277838741      0.31675124932069      0.28916292270103
  C   2.94908241407945      0.30760098760463      0.09359538997200
  C   3.73211573088522      1.41367381725777     -0.02727593510636
  Br  2.99055949592315      3.15731832797765      0.01944412499696
  C   5.12322603429861      1.28700597358717     -0.20080110882519
  C   5.66513287712414     -0.01379709386563     -0.28067535983165
  C   4.88458515518533     -1.14370157218642     -0.16451496099415
  N   3.51205418749452     -0.95642621475219      0.05596290938386
  N   5.43741083494439     -2.37823049059595     -0.25897893195215
  C   4.76993813572201     -3.51084128959787     -0.16882543016299
  N   3.42063872670645     -3.62205165770655      0.04950987271449
  C   2.89485851205756     -4.82880671412945      0.11411809879471
  C   1.41590544910031     -4.91727744032357      0.36055021303039
  O   0.68518550977359     -3.97926760401021      0.51966824818515
  N   3.48602751712827     -6.01023203936901     -0.00335140977505
  C   4.82385086084857     -5.92613919089883     -0.21778483518900
  C   5.49501271310774     -4.74770638518559     -0.30447891865274
  H   5.74092677606547      2.16859963792377     -0.26723481713333
  H   6.72200027188557     -0.16969618540181     -0.44019534507710
  H   2.94616885314784     -1.79897655014283      0.14941922862155
  H   1.04626206780569     -5.95968010078768      0.38739777396063
  H   5.34878419836054     -6.87107273466308     -0.32082733709023
  H   6.56132089996807     -4.70604673005496     -0.47688439257084
