23
Coordinates from ORCA-job 21190optt
  Br  1.01870930385747     -0.78123749846847      1.30421025841642
  C   3.13202751916836     -0.03527641502713      0.12890632010631
  C   3.83645636880402      1.09941731272549     -0.06863390353954
  Br  3.03890491460673      2.80617906373901      0.21329958993048
  C   5.18208234313205      1.02100327942442     -0.50382822905950
  C   5.77101435586180     -0.18566129798761     -0.71363665146500
  C   5.04852665428558     -1.40651079517924     -0.49834904494024
  N   3.74154379116507     -1.22384893691928     -0.08991164907068
  N   5.60053781981947     -2.57239310137308     -0.67184665044375
  C   4.79487694646376     -3.72722211030157     -0.40050795249756
  C   5.62799692859615     -4.98005399729257     -0.54364429332971
  O   5.46861823535186     -5.98850869224944      0.07168774596903
  C   6.77987625705503     -4.85875958867095     -1.59562452532001
  C   7.70539716039959     -5.98586173487926     -1.52905273832690
  N   8.45429645810855     -6.84878146803820     -1.46516423216288
  C   6.21075745266567     -4.70901012046591     -2.93563299374162
  N   5.74472570099715     -4.60920411400028     -3.97682543981765
  H   5.74441391890307      1.93320279585369     -0.66840323482671
  H   6.79765674444819     -0.27319032310182     -1.03768557172415
  H   3.15976842970078     -2.02977994279993      0.10810422123259
  H   3.95036547503365     -3.84493168453649     -1.10540348939827
  H   4.36484386640938     -3.76877622178644      0.61026311919744
  H   7.28860335516629     -3.91979440866484     -1.35132065518805
