22
Coordinates from ORCA-job 21197optt
  Br  1.18394566428673      0.43859704526625      0.00458832390261
  C   3.10842704574457      0.22907118622127      0.01204749451460
  C   3.64530088828199     -1.05579625808449      0.00853128026849
  Br  2.60451924281389     -2.62566562343066     -0.23010362244335
  C   5.08591670854188     -1.17879471564505      0.03234019745506
  C   5.77278306953505     -2.51042233736892      0.15471385843203
  C   5.98161950929836     -3.20467969255410     -1.12334685201116
  N   6.18044938314647     -3.75512453389175     -2.10982992022747
  C   5.79644935265018     -0.01244662686493      0.01247228560413
  C   7.30906527263356      0.18474993351234      0.01166253548691
  C   7.39919798871353      1.68162792780062      0.02020938057208
  C   6.13477837434228      2.25651650465076      0.03514896445110
  N   6.11388719480225      3.63171461789842      0.10029811572523
  C   7.32134253807978      4.08327247377374      0.15140422729186
  S   8.59192784666527      2.89641920359682      0.12031009034554
  C   5.13279905548635      1.24027012201651      0.01632885561049
  N   3.76317720814037      1.35337443088149      0.04493477515743
  H   5.20169475183724     -3.18415824704024      0.79736232908309
  H   6.75961485380835     -2.37605655309723      0.60452307386674
  H   7.76489788906464     -0.27247179349300     -0.87192111348450
  H   7.77755193844341     -0.27532806664566      0.89009623217924
  H   7.57065422368377      5.13433100249782      0.20422948821987
