21
Coordinates from ORCA-job 21200optt
  Br  1.22638610670528     -0.92056439644495     -0.21720693675185
  C   3.05935714387825     -0.34116884567740     -0.12730536107695
  C   3.37546277646554      0.99361775604781     -0.31868157992710
  Br  2.04684373018843      2.28180930990377     -0.74520419037154
  C   4.74326994836689      1.43035703867745     -0.23211202313519
  C   5.18507168443102      2.85620671727090     -0.40621599402260
  C   5.48645583520851      3.52637072662340      0.86889350650741
  N   5.77147139820549      4.00809268787989      1.87121818419806
  C   5.63386105338106      0.40222092587974      0.06989166870228
  N   6.96867618165350      0.31413928091736      0.28169457185431
  C   7.98466108656172      1.31668804313004      0.36451007415003
  C   8.46072068298936      1.79146952882012     -0.94861612519599
  N   8.82632442270915      2.19107076320373     -1.95866075088252
  N   7.34620227050723     -0.99630852618648      0.52851971933320
  N   6.26167308744668     -1.71814656732195      0.48491557422714
  C   5.20258902616485     -0.93497953876814      0.22138850574479
  N   3.90459000773471     -1.32268083115807      0.13052969323976
  H   4.41839667183807      3.43832976068859     -0.91561282034524
  H   6.08914310285686      2.91943596463943     -1.02051139290042
  H   8.82570259971207      0.86204508404808      0.88935896008170
  H   7.64414118299519      2.17999511782666      0.94020671657072
