24
Coordinates from ORCA-job 21208optt
  Br  0.66129016920572     -0.01706830070530     -0.28255182548302
  C   2.57968700208848     -0.00329126392080     -0.14966226800607
  C   3.26596834547601      1.17989226977106     -0.11159381973685
  Br  2.25605198106388      3.32599471861936      0.85791792414285
  C   4.65437000343169      1.15856548871649     -0.05630469758250
  C   5.38047598027129      2.48850509074963      0.01638892563161
  C   6.81218662847805      2.40925575751634     -0.26187686264266
  N   7.93633424476311      2.35019546799147     -0.48286228087178
  C   5.32964213499176     -0.05726482467689     -0.04352053765777
  C   4.61826549354145     -1.25625941585708     -0.08142943027607
  C   5.33206705363998     -2.57341482661391     -0.06316346868487
  O   5.31834876235924     -3.18036342547774      1.25698859961393
  C   6.28677610845654     -2.81498664294237      2.08638378814687
  O   7.20845463992917     -2.09501542404804      1.82479520952670
  C   6.10641481738669     -3.42990301395843      3.39979861295978
  C   5.99021479183176     -3.90764570045058      4.49003640068062
  C   3.22874630055210     -1.23031227934806     -0.13937686365809
  H   5.23030232933013      2.92669433983162      1.00633980769846
  H   4.92158187084905      3.19162268493061     -0.67954154086189
  H   6.41396442562980     -0.08668277314351     -0.00216894577670
  H   6.36763054966583     -2.47071207473176     -0.38242850556527
  H   4.82096364193380     -3.30779424462975     -0.68231742821524
  H   5.88196636169940     -4.32734909182871      5.46152180177080
  H   2.66329636342471     -2.15466251579358     -0.18337259515292
