25
Coordinates from ORCA-job 21212optt
  Br  0.97848094671088     -0.29797908391301     -0.15359507361300
  C   2.87377499134490     -0.04939279682079     -0.16109833230321
  C   3.44817377234977      1.19827335291259     -0.11441173526313
  Br  2.31227992165701      2.71726095510386      0.09685925879306
  C   4.87419766661502      1.34464016054300     -0.12150628478581
  C   5.61868536069460      0.11655162298808     -0.05854174583942
  C   5.02025408325651     -1.11892770318113     -0.11107664115736
  N   5.81445077047606     -2.28044664033346     -0.12259886210060
  C   5.27246785357901     -3.49068933115720      0.40448059797464
  C   6.32877143725816     -4.45501583765102      0.84183813976114
  O   7.50823779374733     -4.22582371274354      0.85742987300751
  C   3.62251430237426     -1.23872018948224     -0.19052887448830
  C   5.63130857677582      2.55699075590143     -0.15494963061385
  N   6.96194083322986      2.50069653392747      0.04986511221272
  O   7.44682916928391      3.80732627038362     -0.10255255014257
  C   6.41502890771022      4.60729546678694     -0.39717868015152
  C   5.26136142852088      3.92353997632441     -0.44536324121169
  H   6.69633916046957      0.18837214910702      0.00161649784081
  H   6.76977842748879     -2.12418216265101      0.16816986756066
  H   4.64360079263588     -4.02101732934542     -0.32566905176816
  H   4.61761050410030     -3.32940305081902      1.28013556075085
  H   5.94178777428749     -5.43652873151169      1.18070897909291
  H   3.12431959995836     -2.18880193978117     -0.29745887980813
  H   6.64763929072096      5.64826675168833     -0.55848610921728
  H   4.29416663475434      4.32071451372395     -0.68108819453028
