31
Coordinates from ORCA-job 21225optt
  C   1.37818568771298      1.19359602942964     -0.51703128613361
  C   2.82099274743119      0.71777825425366     -0.38844030576105
  C   3.68330553744054      1.32493299270656     -1.49829419043715
  N   3.31036177185335      1.10258854929997      0.91537856679168
  C   4.34747393996027      0.52127457014418      1.40850827870638
  N   5.05708474859209     -0.48449409476450      0.76760031594223
  C   4.86911944947495      0.93801702516671      2.73137355283424
  C   4.78493412413066      2.31041104034584      3.14986016008103
  C   4.55672888227247      3.37060719801250      2.21905600994606
  O   4.35064329973645      4.57224376276192      2.49251618589100
  C   5.01887563813386      2.63466807720065      4.54783550699679
  N   4.99000411210075      3.95284094803799      5.03826621065250
  C   5.37596847304694      1.62294937769907      5.34592997143322
  F   5.64674495877119      1.79326432755015      6.66076060583807
  N   5.61954404456542      0.33809253487301      4.91985715666984
  C   5.33485213144931     -0.08437871045268      3.61666311854815
  N   5.48830718463761     -1.35325198812814      3.31125875289932
  H   0.95640653403165      0.92602175624483     -1.48951767955128
  H   1.34425529991625      2.27840211823789     -0.39958415679919
  H   0.76535339846607      0.75344672969635      0.27023812033032
  H   2.81004985414700     -0.37840007643984     -0.51955142048701
  H   3.65364368386603      2.41352632070223     -1.41527323239856
  H   3.31417683573902      1.04073108294491     -2.48755448551254
  H   4.72133273183155      1.00484754053269     -1.40138647516259
  H   4.53803661282833     -0.97849637183332      0.05801573357270
  H   5.50378982966670     -1.10926095462766      1.44054857958370
  H   4.58263598520919      3.07566261088430      1.16547155373877
  H   4.53451383990798      4.56642179933871      4.36939976476798
  H   4.61422837172733      4.01537786243826      5.97204722670763
  H   5.63067958177452     -0.37625430923290      5.63019363043098
  H   5.83677070957818     -1.87416600302304      4.10985422988029
