32
Coordinates from ORCA-job 21236optt
  C   0.92253261703919      0.11095963224405     -0.16105614826235
  C   2.44073589798633     -0.01793630967943     -0.17584790029394
  C   3.02509664945400     -0.53111732095875     -1.52210699713772
  C   3.90234756568559     -1.75227061264688     -1.11300609950881
  C   4.94750252145621     -2.20904936635372     -2.08607596397962
  O   5.97779352052135     -1.45516635217361     -2.24307993298449
  N   2.87642012631600     -2.76976414871273     -0.72741559847088
  C   3.12824284839172     -4.17863087468860     -0.90170394942763
  C   2.37147163094562     -2.39730615431219      0.59144428227743
  C   3.01857094402446     -1.03307582538456      0.84051254385170
  C   4.44818431935063     -1.28669401162464      0.29142953196336
  C   5.24883009433890     -2.37356402997132      1.00672708909882
  C   5.32029271606796     -0.02135765399887      0.36529351696016
  F   5.13043823808414      0.92238911155846     -0.55853231972037
  F   5.07754518326753      0.61335905578841      1.55851518103674
  F   6.63028386719749     -0.27711085859210      0.37981196880137
  H   0.60890839054153      0.94594719057601     -0.79147790571512
  H   0.53990147688153      0.28966336134520      0.84889512529974
  H   0.44577440763283     -0.78900576894599     -0.55325041739838
  H   2.85785332816702      0.96280851286059      0.06173724198905
  H   3.62421009438390      0.21584348899599     -2.03615177073762
  H   2.24251732908399     -0.88691714942284     -2.19293084163449
  H   4.56854842138293     -2.82838805787422     -2.92027735328332
  H   3.48190023559756     -4.37436155457334     -1.91120875292139
  H   2.18434581984388     -4.71566324503084     -0.75594334643661
  H   3.86943956664562     -4.60084142504474     -0.20497705260242
  H   2.67245499427383     -3.11982812235046      1.36338760460028
  H   1.27761500255099     -2.35184484172033      0.62139603306810
  H   2.95616666258538     -0.70491895053835      1.87876825242511
  H   4.65317100219433     -3.26447233474173      1.17087404315711
  H   5.61041633761170     -2.02055459007342      1.97614955706824
  H   6.09848819049574     -2.64713079395501      0.38210037891798
