34
Coordinates from ORCA-job 21249opt
  C   1.86870608604328     -1.36794930617646     -1.96639062517115
  C   2.90550456169959     -0.76732704885540     -1.03159568916651
  N   3.40666293910982     -1.77334857479665     -0.13007798523914
  C   4.30107570490615     -1.44939909163133      0.73115858409168
  N   4.78751037587056     -0.18845356740851      0.89087011516913
  C   5.86561862677577      0.20908443097964      1.78067329554272
  C   4.81589274234760     -2.54645482099551      1.66451277060784
  O   4.15198830790872     -3.75507298602336      1.35162073578687
  C   6.32417992042151     -2.66414800534966      1.69031992592570
  N   6.87582580373528     -2.52678239967848      2.95668423831235
  C   8.19830662904471     -2.55410393566123      2.93648518030771
  F   8.77908785276901     -2.40638364223005      4.16401161207166
  C   9.01041380822155     -2.70224051575716      1.84752629146358
  C   10.50334790122673     -2.72914899551794      1.92531027373837
  N   8.45121554365544     -2.85660200947515      0.59048274396107
  C   7.10085230947866     -2.81877393777875      0.56213202213914
  C   6.49206980807917     -2.93587406054191     -0.81162090792051
  H   1.47956436016842     -0.62392304452049     -2.66408514444217
  H   1.03859154911789     -1.77591469521929     -1.38857047979190
  H   2.31374340356908     -2.18514664068531     -2.53450974700664
  H   2.45478016905102      0.07020858444931     -0.47569964477450
  H   3.72451556559903     -0.33756870323186     -1.63100396832619
  H   4.52577583611373      0.47687434244042      0.18448233564750
  H   5.79724180437648     -0.31966691436751      2.72976069086749
  H   5.77373297839701      1.28045855832845      1.96330450065447
  H   6.85073101590037     -0.01296519844762      1.36355438988371
  H   4.53966514041056     -2.24589032675382      2.68356194002613
  H   3.52914742128248     -3.52366080943592      0.64138008439419
  H   10.85682489347619     -2.58885034138052      2.94576814495214
  H   10.93191131235815     -1.94674616809033      1.29013563901669
  H   10.88541681006640     -3.68330420628911      1.54699475832307
  H   6.39106283644843     -1.94810148312924     -1.27617923581204
  H   5.50787754690529     -3.39980406307065     -0.79150988386683
  H   7.16315843546545     -3.52602042369845     -1.43548696136571
