30
Coordinates from ORCA-job 21246optt
  C   0.83949501309705      0.54905177735848      0.15679193617825
  C   2.27579250811466      0.04548385059723      0.18886208030665
  N   2.79855219248831     -0.06642448848292      1.54431150743217
  C   3.42005270867988      0.96133547361890      2.16235013220458
  F   3.33048611121888      2.12662234574672      1.48961826268816
  C   4.08336784278084      0.87886405102587      3.32004756217107
  C   4.20949681799436     -0.41222773409802      4.00861869621659
  N   4.85993406231277     -0.49841002365786      5.15758274834645
  C   3.58539439164091     -1.51013869310204      3.35707775057774
  C   2.88258156120141     -1.34006525652464      2.13681607405167
  F   1.60471381657896     -1.94959070874810      2.05217188501577
  C   3.66152920157374     -2.93299392620858      3.92061096915583
  N   4.92034528529595     -3.25750826452045      4.61990292714408
  C   2.48436812363297     -3.23018186362533      4.89264122628281
  N   2.50607083264085     -2.43019976539884      6.10371308211742
  C   3.54743955384262     -3.92650169346821      2.82597190061133
  N   3.48044663586794     -4.75316858707712      2.03291731516180
  H   0.47189706718315      0.58392084544084     -0.87101178091961
  H   0.77496853368234      1.55146969232307      0.58137278636033
  H   0.20400835807872     -0.11802888934250      0.73837783165868
  H   2.92374524892697      0.70212508095910     -0.39474043923367
  H   2.33721504075870     -0.95572834754773     -0.23741291162771
  H   4.50869802472769      1.77402011675570      3.74971262353237
  H   5.22487292783011      0.41429144552158      5.41134958070953
  H   5.15652948041603     -2.41441310053313      5.15395183020985
  H   5.65421258649909     -3.33357242497468      3.92241106994729
  H   2.53484276267900     -4.28710185457711      5.16503095479230
  H   1.55131451318130     -3.05174308711345      4.35689263695811
  H   2.56220485575483     -1.44920475288284      5.84352605640204
  H   3.37842394131968     -2.60798121746382      6.59153370554786
