24
Coordinates from ORCA-job 21242optt
  C   1.12208206039344     -0.67199284328914      0.54865917489612
  C   2.59747534547339     -0.38359208615555      0.36221596166172
  O   3.08937073588910     -0.10920022840526      1.71274471499315
  C   4.21650590209392      0.60053656990448      1.82666127691219
  N   5.12560108815184      0.87158525360326      1.01085672047397
  C   4.28221055365540      1.16717844601210      3.24592723843173
  F   3.21785099507514      1.94799924089438      3.49670190375919
  F   4.27064690867721      0.19573862512843      4.16791607570052
  F   5.36918191126888      1.89944708213159      3.45162635001621
  C   3.32575620307641     -1.47116860028511     -0.34574141237594
  C   3.02015065558666     -2.81753864112883     -0.39596528618291
  N   3.95813025712816     -3.39161685859628     -1.23663467014578
  C   4.05587456600072     -4.71858762157922     -1.63077640702896
  O   4.92598497462504     -5.10660692106616     -2.44600557777635
  C   4.77819396763637     -2.36745030331928     -1.64235691131930
  N   4.40608266722469     -1.19644610027274     -1.11828796611945
  H   0.63316902079882      0.15116206135734      1.06889435246061
  H   0.99391458681643     -1.58082467505772      1.13737580796186
  H   0.65462075931529     -0.81975052543539     -0.42384093614119
  H   2.74353084674012      0.54277747751899     -0.20150170124448
  H   5.00668153418710      0.39379115740084      0.10787942046853
  H   2.23909728625305     -3.40353802161322      0.05578811951412
  H   3.30458571325452     -5.35883338596891     -1.15821107888250
  H   5.59530146067805     -2.55106910177850     -2.31592517003308
