30
Coordinates from ORCA-job 21240optt
  C   1.59064120455810     -1.07602738336578      2.83586810555690
  C   2.78361222447694     -0.18834617659398      2.55890566766525
  O   3.34013583414390      0.41014378033683      3.44483648581056
  C   3.20785583595929     -0.08289640413378      1.09633392406170
  C   4.68859259803747     -0.08072944780732      0.86727556625317
  C   5.42440262136341      1.12175003614384      0.78373501885831
  C   4.74372249234874      2.45806988221410      0.89953899887865
  C   6.77472351080638      1.03677522136784      0.59389068567811
  F   7.47545382146169      2.20420325986156      0.52019758102568
  C   7.53043840170603     -0.16646736813759      0.45595282208981
  C   8.93084147250152     -0.10460051786255      0.19607446714929
  O   9.71951745213234     -1.06384482490038      0.03822840156164
  C   6.77504028866555     -1.37912835215250      0.59749377375587
  C   7.48300371433307     -2.70240608653574      0.52993921956992
  C   5.40219337562874     -1.31090304128846      0.80441071104682
  C   4.64904178365864     -2.51689371588545      0.99092768996741
  C   3.97964629935270     -3.50373740783969      1.16414452156225
  H   1.29341479453402     -1.00069698147107      3.87922127427599
  H   1.86827409709450     -2.10384444260960      2.59141222533431
  H   0.76121722597562     -0.80053755457088      2.18006282736026
  H   2.75545021302467      0.84784800908835      0.73470977503110
  H   2.72951101659514     -0.89652827991879      0.54577281787673
  H   4.06696003726266      2.63055309117810      0.05677387417067
  H   5.47065522386220      3.26624441734136      0.91430589037546
  H   4.15225103964212      2.50500579446754      1.81688072020456
  H   9.32903259540982      0.92007021282083      0.12585911850479
  H   7.98325068108883     -2.82034288649306     -0.43196679470347
  H   6.78926846482265     -3.52615283833783      0.68667574813718
  H   8.28094485570587     -2.74652612408022      1.27194515773478
  H   3.41390682384728     -4.39005387083570      1.31559372520630
