34
Coordinates from ORCA-job 21241opt
  C   1.24755134196735      1.04000292668486     -0.28976837665134
  C   2.46093230958130      0.16917775929529      0.02154485484405
  C   3.01471880856494     -0.62294815542937     -1.19524185748726
  C   3.59436918380064      0.40546725177588     -2.20331509419210
  C   4.24330721685609     -0.20103269671278     -3.43024254488942
  N   3.36596430489305     -0.50162199892639     -4.42928350433030
  N   5.50417794500972     -0.40002891695386     -3.57789462527175
  C   4.08850104411437     -1.64559040340646     -0.71696242403483
  C   3.49862532960414     -2.86155752297724      0.01834226831612
  C   2.43783936353577     -3.58039655141212     -0.80115798290172
  C   1.33790618193483     -2.60026008423977     -1.19200297476197
  C   1.89602243035836     -1.40318101915972     -1.91295987683854
  O   1.14905535058542     -0.77338871958775     -2.76595195613864
  C   5.19229257945665     -1.10066579821999      0.17065885003095
  F   5.73167095692684      0.05805772162273     -0.24783615848686
  F   4.81609883264583     -0.88815308993017      1.44882083117721
  F   6.22193303104076     -1.97409404641564      0.24417186162756
  H   0.84325425090798      1.46616340767026      0.63197779638134
  H   0.47488427186871      0.45698716235849     -0.79050842301824
  H   1.50437503644481      1.86687801862180     -0.95352500647849
  H   2.18107906184439     -0.54436692100350      0.80160041813645
  H   3.25575615164949      0.79079328771547      0.45141995542664
  H   4.31163114095455      1.06018908950521     -1.71086892258457
  H   2.74757811963870      1.00219926969711     -2.53990253333490
  H   2.40032498854575     -0.65217537876360     -4.11149818597593
  H   3.73531250526361     -1.11338616570229     -5.13944221856918
  H   5.99701067582064     -0.07029374302154     -2.75311638485510
  H   4.60820393223018     -2.00249942435661     -1.61165525754833
  H   3.05017806489740     -2.52980033951569      0.95902722104547
  H   4.31130240932831     -3.54352230933485      0.28120222549831
  H   2.04201827327597     -4.41886301449100     -0.21762743222152
  H   2.88943859433339     -3.98877473624215     -1.71034766277982
  H   0.78289359910785     -2.31795870352630     -0.27067423054520
  H   0.60879271301209     -3.06835615561829     -1.85598264858805
