30
Coordinates from ORCA-job 21243optt
  C   1.25101098943321      0.28628418281680     -0.08498640950451
  C   2.73456008396962      0.20448701840341      0.23091657452435
  C   3.11305285004490     -1.16686546614693      0.81480312071064
  N   4.20853890101023     -0.83816547314899      1.69500228893485
  C   4.55823196291963     -1.59357413318103      2.88090496509486
  C   5.16545083362976     -0.46100157339421      3.73593993179212
  N   4.46698013272139      0.75660286853849      3.31664005924810
  C   3.96839173163077      0.46849397817328      2.17267946189195
  N   3.16532950267291      1.12484896213912      1.29239578678395
  C   3.09577161456982      2.54501632664438      1.10413883887552
  N   2.73929908023368      2.89776125967181     -0.11581455499541
  C   2.61905801559615      4.26211154949714     -0.36427306378428
  C   2.95880895838368      5.17421402353312      0.63593858294752
  F   2.97174005027358      6.52062958419668      0.34660927701691
  C   3.35860460442808      4.79128659259414      1.87976575750924
  O   3.86445789712439      5.68410410160688      2.80874068152833
  C   3.38800560311474      3.38665278008775      2.17305836178307
  H   0.97969370415658     -0.52382210566226     -0.76872366465227
  H   1.02110736071868      1.24493493881492     -0.54131300283959
  H   0.66973577222590      0.17523899524118      0.83279958061748
  H   3.30891434677878      0.41658842302643     -0.67504647862431
  H   3.39508395243257     -1.88041198489642      0.03950607897786
  H   2.26417219042813     -1.58048465300737      1.38350170561198
  H   5.25477592236177     -2.40501239916317      2.66793429839913
  H   3.65574490869962     -2.00798034400348      3.35745934138182
  H   6.24022070046843     -0.37338945487305      3.53486296244829
  H   5.03956914577794     -0.63207616672162      4.80576418953800
  H   2.17706144639399      4.58301434959353     -1.29726795481150
  H   3.77475538368031      6.56209377489656      2.42306259794240
  H   3.64087235412065      3.01342004472289      3.15100068565343
