29
Coordinates from ORCA-job 21267optt
  C   1.01641517199090      0.19514989237365      0.02563894541313
  C   2.52676682326975      0.17964132735909      0.05204278343494
  N   3.06843683462550      1.23945163739848      0.73274778722824
  N   3.12545453072655     -0.75953343774591     -0.56303626618662
  C   4.58561458190624     -0.86800143137359     -0.64468423992947
  C   5.38216282287122     -0.71358330027399      0.70397212858851
  N   5.83008637851494      0.60871057502208      1.16700759735205
  C   6.22138477347612      1.34935947706526      0.15909673412357
  N   6.82487777187273      2.63240043285024      0.25811811246249
  C   7.25629457659297      3.05109024664074     -1.09794821960316
  C   6.53763609676631      2.08198252669422     -2.01876468551971
  C   6.30767392535333      1.98703409628515     -3.35805172069380
  N   5.59670927732348      0.94208851300670     -3.90344774543495
  C   5.08356304076581      0.06000674464088     -3.06286182779955
  F   4.38671790461515     -0.93412572149340     -3.66312690901133
  C   5.18915227810700      0.04585639461850     -1.68978533513678
  C   6.00210992931293      1.08288905315467     -1.18985978957113
  H   0.61498087482473      0.09756608978808      1.03832715647164
  H   0.65994234155165     -0.62844198803837     -0.58531083871202
  H   0.65551831267468      1.14028360357974     -0.38732410295441
  H   2.44604267351436      1.77897196358728      1.30781837625060
  H   4.05218849496491      1.22733325557376      1.01454326394214
  H   4.75347034961323     -1.90494011044505     -0.94963987665029
  H   6.26841434149849     -1.35250530989723      0.58272958376172
  H   4.77433416088912     -1.16504978916044      1.49250938385806
  H   7.53886324849010      2.68613888995130      0.97097383387679
  H   8.34387801841971      2.96036501669419     -1.20800933156409
  H   6.98713790424616      4.09316350866100     -1.28460920275165
  H   6.67617256122186      2.72069784348296     -4.06806559524491
