17
Coordinates from ORCA-job 2127optt
  C   1.61407539016312     -0.28783092227173     -0.85361867149242
  C   2.41268346133247      0.28077122426236      0.33075501349927
  C   2.93123387068230      1.66659624880163      0.10489445434148
  C   1.93226842097957      2.78489947092824      0.09384699578083
  C   4.28173853156797      1.90954244514634     -0.12799411435880
  C   4.88831685579063      3.14702227930839     -0.42912047129862
  O   6.12421266020609      3.34976875414466     -0.61640107202649
  H   1.22292487871144     -1.29057074881560     -0.64468997315199
  H   2.24816390551168     -0.33743430968560     -1.74108110412509
  H   0.76736640938988      0.36160474961041     -1.08983566168776
  H   3.25206568858599     -0.39005237638833      0.53954320129260
  H   1.75800523485505      0.24586990855632      1.21748330926284
  H   1.79453411583422      3.23353095232745     -0.90187893629464
  H   2.24200352548727      3.61058256688059      0.74998495239066
  H   0.94974928973931      2.43939602472001      0.43253321451372
  H   4.96660995752004      1.06254938918795     -0.08352525645129
  H   4.19804780364293      4.01075434328688     -0.50989588019430
