35
Coordinates from ORCA-job 21273opt
  C   1.37880459300411     -0.65155096327613     -1.38444295754936
  C   2.58864188467815     -0.32474957087369     -0.56642852037523
  C   3.23366691778671      0.96834317162025     -0.60010846499243
  C   2.79343005304279      1.90749965487658     -1.69058831760537
  C   4.23647897565759      1.24213615713851      0.29701821561283
  N   4.68902696488682      0.37470232030625      1.25886886001379
  C   4.04600281759096     -0.84448199527827      1.31897991706802
  C   3.04688118243658     -1.16758414325872      0.45267848259760
  F   2.46192331327592     -2.39455683051476      0.58088955884253
  C   5.04584024759000      2.52507921859901      0.31823882407733
  N   4.94723680943686      3.10151963370282      1.65031613080595
  C   4.89967697394372      4.41823488467744      1.92500319561161
  N   4.86638885254597      5.01552301628212      3.05809921863228
  C   6.53186015173038      2.25324328100232     -0.07219291278729
  C   6.57135758219445      1.57098772143458     -1.44068821852188
  C   7.32220723735446      3.55414849250611     -0.11057995799027
  O   7.15148562114336      1.43274486856504      0.89615188355410
  H   0.48639426449932     -0.08266768213815     -1.07546655435417
  H   1.13204955113569     -1.70853580290826     -1.28876508516118
  H   1.52423220790873     -0.44184700845703     -2.44864993095112
  H   1.70406638468894      1.99754755586406     -1.71005510003380
  H   3.09034572369616      1.52353885143038     -2.67447734826274
  H   3.20113704307785      2.91022494203185     -1.59071033101802
  H   4.37479948741327     -1.55980442862365      2.06242078275090
  H   4.65411107317184      3.25731712962490     -0.38654949546917
  H   4.96223167816069      2.41775710542322      2.39609122167708
  H   4.88124914870790      5.03802925290547      1.02538689505060
  H   4.89945668988604      4.33483452260442      3.81782790483244
  H   6.05476057540574      2.16719584376584     -2.19877044594480
  H   6.08892153600669      0.59481698122881     -1.38449768619826
  H   7.61048769775697      1.43489419403354     -1.74616458931687
  H   6.92038038979921      4.24086434413905     -0.85996448628935
  H   8.36038382678005      3.33057397584895     -0.36307384365388
  H   7.30692745785885      4.03874952669294      0.86539674071582
  H   6.44815508574696      0.80227177902413      1.19380641463231
