33
Coordinates from ORCA-job 21279opt
  C   0.98289978931655      0.47202589369266     -0.73902647245013
  C   2.47021662510791      0.31652239445399     -0.44380019264194
  C   2.82851415560396      0.53640989102325      1.03596910346726
  N   2.00440469973114     -0.26649629348087      1.97282049779256
  C   2.17687087124979     -1.71500046429474      1.91946825847772
  C   3.18103832201547     -2.21830285567564      2.97737620616800
  N   3.95563577713676     -3.36236396061044      2.53055343868497
  C   3.46182838772822     -4.60245127484258      2.54470600747968
  O   2.35680722490405     -4.93212196867375      2.95017803160447
  C   4.29815461808130      0.33258620461570      1.29292421342907
  C   4.98321356811543     -0.84739096940293      0.85136405782372
  C   6.12863325264013     -1.33441996941499      1.49163387960431
  O   6.61176460614819     -2.49305848468806      1.38575376379898
  N   6.75302195194608     -0.45622764235607      2.38924253983775
  C   6.17235764667311      0.75837441421492      2.78103119789903
  C   4.96704906505621      1.10112486029584      2.24546541093035
  F   4.40504663860740      2.26560493499537      2.67938004103524
  H   0.78549872686666      0.43887793441336     -1.81216567093313
  H   0.60283401163102      1.42466397272444     -0.35870286457533
  H   0.40253530747686     -0.32851362021487     -0.27525989681337
  H   3.04761369041426      1.03989551197030     -1.02494007127736
  H   2.80189827400118     -0.66932460428685     -0.77431838961498
  H   2.58371768602577      1.57564962488702      1.27413261143454
  H   1.03034140408988     -0.02448646566950      1.84755346682680
  H   2.51590987260279     -2.06291763492741      0.93819501874948
  H   1.21158538116525     -2.19142905191678      2.10104926543190
  H   2.64465939087348     -2.50247641437250      3.88384943715213
  H   3.87213286029134     -1.41443135068709      3.21892261086328
  H   4.87411392365892     -3.20368386803565      2.10896692042838
  H   4.17593426164470     -5.34267715732463      2.14624183091726
  H   4.53573593920602     -1.51907910165281      0.13313940383373
  H   7.42564921565651     -0.90424510316603      2.99067490612098
  H   6.72938285433320      1.40636261840746      3.43962143851448
