27
Coordinates from ORCA-job 21278optt
  C   0.82588334873679     -0.27027842807998     -0.11237055091405
  C   2.30598199140759      0.07525337011147      0.04033186231157
  C   2.75249438071693     -0.24518642124793      1.44624896151978
  F   2.10557320914518      0.50960896755930      2.36004555138682
  F   2.53818014605975     -1.51957736928567      1.79216917553741
  F   4.06526962373097     -0.00781695923758      1.63984989910195
  C   3.17670231705254     -0.60853925199822     -1.00169488027522
  C   3.66013276038885     -2.08525318105991     -0.97315059222650
  C   4.00011894796347     -1.76401135123318     -2.48847124235291
  C   4.27280589550129     -2.76289748320338     -3.52925795260707
  O   3.49936585526743     -3.75706089652424     -3.69369588260791
  N   5.02109195677391     -0.67956528114997     -2.35667102555974
  C   4.49823006256320      0.02111090026206     -1.43046729474911
  N   4.97360689335904      1.23737059056960     -0.96391005625823
  C   2.65336048529560     -0.94592523679766     -2.42948466179438
  O   2.45290644346430      0.08061139898078     -3.34974926022697
  H   0.22908894923868      0.18113573463768      0.68109896373923
  H   0.68412897866199     -1.35120795653264     -0.08878501295462
  H   0.47293157932531      0.09826363383961     -1.07368922236381
  H   2.43005393857768      1.15930465076730     -0.05731923048074
  H   2.86057684128818     -2.81910015586539     -0.88207226986436
  H   4.50447185169951     -2.31153513163465     -0.32215316305627
  H   5.23700903236579     -2.66271694622924     -4.04608329702779
  H   5.90807210875024      1.41893928213135     -1.30571616861415
  H   4.90937242064978      1.35036658570374      0.03783326195468
  H   1.78885819644550     -1.61116740506670     -2.40745383603139
  H   3.20673178557046      0.03987434058349     -3.96338207558622
