29
Coordinates from ORCA-job 21286opt
  C   3.50282678936809     -0.19488189111221      3.32387055982363
  C   3.02384060309318     -1.25017538375752      2.36580353055207
  O   2.39709331490404     -2.21949014075615      2.72388622372444
  C   3.38984986556965     -1.05909867253143      0.89813647583759
  C   2.53498317569460      0.02939582228968      0.26272180365126
  C   2.78110539140435      0.32515256035069     -1.19624582096690
  O   1.65439490710969      0.58643773081157      0.87276556199054
  C   4.87611723185324     -0.77566336525782      0.73509663216499
  N   5.17326088602387      0.49268300397041      0.55467868413925
  C   6.50599644877949      0.85885272649795      0.44421484565368
  C   7.52618870697445     -0.14623098366900      0.55933718370497
  C   7.14325519475278     -1.42771024120927      0.75692553461666
  F   8.09225628015137     -2.39615144515511      0.88012728412640
  C   5.78993839782112     -1.83821683440773      0.86246646318132
  C   5.43636689071989     -3.28685074518479      1.03518587042606
  C   6.83120499504516      2.19419117220735      0.21336601646608
  C   7.13999177656863      3.34147426355287     -0.08108419306377
  H   3.09368200909426     -0.38619762311158      4.31301367169667
  H   3.20877781212968      0.78935450368592      2.95904087079774
  H   4.59461639139942     -0.20968597812355      3.35050595738583
  H   3.11936038594424     -1.98867880347291      0.38637981295937
  H   3.32884005819929     -0.47819936636481     -1.68684463411623
  H   3.39501701120902      1.22398999460156     -1.24643051301981
  H   1.82391610676221      0.50410978916710     -1.68516495708387
  H   8.57351865992180      0.11423122590001      0.49342334974061
  H   6.14242199286671     -3.77703590634355      1.70873018886142
  H   5.46971490794414     -3.84628310624844      0.09073731591677
  H   4.44093937026019     -3.41723016496794      1.45950707793429
  H   7.40352443843503      4.36790785863876      0.02284920289882
