28
Coordinates from ORCA-job 21283optt
  C   1.17765455143142     -0.75536718087322      0.68825388570171
  C   2.42682943770189     -0.11144887213976      0.08620321740123
  C   2.14406068593303      1.32624258873841     -0.40288776193254
  O   0.96238100534189      1.68282185263476     -0.74374173720764
  C   3.46145010508047      0.00240142023116      1.19613133298413
  F   3.06961108795617      0.85142365171377      2.16612550696323
  F   3.71078733989359     -1.16231088652882      1.84458459760496
  F   4.65757993997094      0.44402531907211      0.77227317391029
  C   2.99640095230319     -1.00340661280359     -1.11303282172158
  O   3.88483732589707     -0.21310315981120     -1.86461119728173
  C   3.67944366861892     -2.27798905391749     -0.67822159669364
  C   2.96416514067733     -3.36768400218734     -0.93418707309182
  C   1.66451478149088     -3.04532531109286     -1.62411455589720
  C   1.86362281596447     -1.58702721899212     -2.00698983156591
  C   0.84090518850088     -0.75079252751779     -2.65280122091543
  N   1.93956567163213     -1.32525943601507     -3.43757342324035
  H   0.90790514900262     -0.25397072260694      1.61779264112119
  H   1.33367707234039     -1.81777409672754      0.88866030483090
  H   0.35344706823333     -0.61910563419874     -0.00785364037137
  H   2.85945706812315      2.07569233921472     -0.03494274929554
  H   3.55689062042495      0.70993100973085     -1.72505271531561
  H   4.64469904962687     -2.25602131623601     -0.19083094743014
  H   3.26167038507553     -4.37649964064602     -0.67517394259189
  H   0.80990858676509     -3.17924858344224     -0.95220319983103
  H   1.48754440533602     -3.64996000303093     -2.51636534443166
  H   0.84058341475438      0.30734301533738     -2.41423507861471
  H   -0.13212996297865     -1.18746740220013     -2.85578915352138
  H   2.65953744490196     -0.62011953570531     -3.57541666956644
