32
Coordinates from ORCA-job 21295optt
  C   0.97684566329842     -0.00579279688644      0.08851399923232
  C   2.49210812816556      0.11049851013079      0.13800479487581
  N   3.02751438515174     -1.02974394467054      0.87106943971330
  C   4.47387507352257     -1.16862970004818      0.81383929298023
  C   4.99930588624046     -1.90008588868033     -0.46362489585154
  O   6.36416514891002     -2.19489128594379     -0.34445260619412
  C   4.24650375554810     -3.14300409157956     -0.69752931063313
  C   3.59460755243550     -4.13584555518525     -0.87088054968782
  C   5.17578437729899      0.16562518724495      0.93393653691997
  N   6.54054161848614      0.05193105530482      1.00579096629465
  C   7.23642744289220      1.24329303411816      1.06277188994561
  C   6.60145876814080      2.44770272332290      1.10088455216853
  F   7.35686185097935      3.58273723536421      1.16055376917402
  C   5.21064518571702      2.58245839979701      1.06614439805688
  C   4.48735019816651      1.35099608913493      0.94058428411589
  C   2.98505667372637      1.39198335590547      0.81459942906309
  C   2.31585247470760      1.64812359130778      2.16837426330223
  H   0.67902323207405     -0.87293425217442     -0.50647226231532
  H   0.53446106088510      0.88508220327113     -0.36205543296250
  H   0.57199085266507     -0.12695980208880      1.09454778564461
  H   2.86621648103735      0.13855134337110     -0.89790830608953
  H   2.58774075734966     -1.89083919319105      0.56640480608919
  H   4.79718112138067     -1.79720900320719      1.65112767256878
  H   4.81022472172777     -1.24023226939672     -1.32410075773008
  H   6.73681356511791     -1.40385949921137      0.15672916003455
  H   3.03765795767985     -5.02616610824853     -1.03256149851342
  H   8.31827071609719      1.19773571959590      1.08916101033758
  H   4.72977987107904      3.55023394331140      1.04425352495854
  H   2.73417817014617      2.22807802549046      0.14806081511240
  H   2.39438113296198      0.75509348625419      2.79076398846785
  H   1.25968758060060      1.90956100758727      2.06015918709601
  H   2.82248859581014      2.46850847999970      2.67831005382544
