29
Coordinates from ORCA-job 21298optt
  C   3.01775627633694      1.41963985574576      1.20365809433130
  C   2.22900046458395      0.28731200706067      0.55611703294304
  C   2.92536144112420     -1.08959255323704      0.63259355237749
  C   2.10611961939597     -2.24337743252785      0.05807374857001
  O   1.30164021613341     -2.92595126689380      0.72085910821025
  C   2.61033086207002     -2.62749104856776     -1.31067221073492
  C   3.86089787569286     -3.50914688791329     -1.45739764890000
  C   4.08120092110325     -4.17098449505291     -2.80088288985410
  C   4.38241942279514     -4.35980922336227     -0.33717155227632
  F   4.22887392977944     -3.87618158746501      0.88892263118503
  F   3.80517709458042     -5.58499414624098     -0.34298743718583
  F   5.70869661842189     -4.59814866504328     -0.49313785967263
  C   3.92989809681562     -1.99264613518909     -1.45022161444125
  O   4.35878557313516     -1.36432083296263     -2.63266319071814
  C   4.17975535474085     -1.26098056503328     -0.17026537223271
  N   5.42068188237912     -1.05605241498989      0.12930578940777
  O   5.55131946972097     -0.36981935813449      1.36079869634419
  H   2.46243165399644      2.36049570617787      1.17229395076689
  H   3.97420524357298      1.56257290656107      0.69844166350385
  H   3.24191014152612      1.18587610122314      2.24653163119590
  H   2.03882186253442      0.51489005134245     -0.49692781152989
  H   1.25244417492459      0.17450293034885      1.03843367737960
  H   3.12894423654518     -1.29269976135609      1.69525936476289
  H   1.92349904868831     -2.70536264970466     -2.15125151815818
  H   3.66013451333915     -5.17704456402209     -2.80998792544610
  H   5.14533791980233     -4.23191063781873     -3.03749863942257
  H   3.60141144117686     -3.57943054233271     -3.57812530644948
  H   5.20460722123016     -0.95972825558843     -2.40565698302199
  H   6.49333742385398     -0.44061653502344      1.52955901906594
