19
Coordinates from ORCA-job 2130optt
  C   2.40973088016948     -0.12375660295972      1.74678041629935
  C   2.81825165172011     -0.04630670101715      0.27110689116215
  C   3.24285854046733      1.34538417638687     -0.14595707186557
  C   2.23987691660555      2.17201923143898     -0.63875971981009
  C   4.59693075106458      1.74447239888350      0.04438863711761
  C   5.59869383729277      0.71923428796847      0.53436979362547
  C   5.08445035187910      3.01394227635269     -0.22662310720659
  H   2.05831145232307     -1.12298745874797      2.02828414533378
  H   1.61142755635256      0.59571765445720      1.93958757295057
  H   3.24896828655837      0.13899009453422      2.39445760006687
  H   1.96142947268831     -0.34998367789301     -0.33985017693108
  H   3.60565436971216     -0.78277048323028      0.08158032528683
  H   1.22905814987454      1.79684059365921     -0.75752638141011
  H   2.41772069761797      3.20320002623451     -0.91165592970313
  H   5.28564991810578      0.22063417323557      1.45796335069645
  H   6.55855589025841      1.20029809449766      0.73104061529792
  H   5.77641928563710     -0.07311460611783     -0.20422640084391
  H   4.45042814520617      3.80843810757393     -0.59625810951005
  H   6.12958384646656      3.25074841474313     -0.06470245055646
