28
Coordinates from ORCA-job 21309optt
  C   1.26178415505515     -0.26780227331058      0.56943170305451
  C   2.56795529726939      0.11361900269013     -0.13505182266035
  N   3.39521851604202     -1.00339355521172     -0.54204036593981
  C   2.96592126016700     -1.56272546530931     -1.82344048595323
  C   3.33219397223343     -0.52786696440036     -2.86887235306107
  C   4.83641834559038     -0.40743567945527     -3.03597458011515
  C   5.28932686314331      0.64689478506994     -4.00363532921876
  F   4.66059300630264      0.58232357205766     -5.18912967016610
  F   5.12978947386706      1.90264899830663     -3.55332223277626
  F   6.60856969347548      0.51949194685208     -4.27027705013702
  O   2.75353571566461      0.76001511726578     -2.52303824319045
  C   2.27287602019114      1.04071784780179     -1.31322072644855
  O   1.63891355187538      2.05128305284884     -1.14456109485745
  C   3.54576353095966     -2.92686191510392     -2.14609122314940
  C   3.07582732075721     -4.02987350362316     -1.21895915223874
  O   3.70640839926035     -3.20981785243459     -3.39218771483409
  H   1.49417525990119     -0.80216155824498      1.49249279306534
  H   0.65962758965229     -0.92127877928360     -0.06291986749714
  H   0.68311777989973      0.62362455123183      0.80983002960253
  H   3.14161825500913      0.74998982722580      0.54755215727552
  H   3.44300420530486     -1.72010643793261      0.16958868119069
  H   1.85013808539169     -1.63092777106220     -1.85017887431583
  H   2.87974155960510     -0.79684860200786     -3.82045134478244
  H   5.17231442223167     -1.37751614141344     -3.40793066654129
  H   5.31093400373310     -0.21209072008241     -2.07424494724626
  H   3.12314724014498     -3.77166168884483     -0.15631093749439
  H   3.68369849131926     -4.92159462205013     -1.37601296232879
  H   2.02638798595268     -4.30764517157948     -1.44304371923595
