33
Coordinates from ORCA-job 21303opt
  C   1.40583397936193     -0.69171944330271     -0.15072553994679
  C   2.82069224765936     -0.16316578193346      0.04765988853398
  C   2.83690704616854      1.05629176542938      0.97220347204892
  C   4.23522344871678      1.65995640841438      1.05700158418572
  C   4.78532807776304      1.90144073542404     -0.35824349190089
  C   6.21986115809921      2.39219668358622     -0.31056767201988
  O   4.83462440920283      0.63350413043785     -1.03161501904917
  C   3.54718420707679      0.09721103172310     -1.28552887885201
  C   2.83142872763557      0.98127444418723     -2.30043928663997
  C   2.91651771256344      2.44085630444086     -1.94351815728687
  C   1.97578223529697      3.35280275549342     -2.49114392207367
  C   2.18426485737802      4.69706409137645     -2.09742304970754
  F   1.33648426161730      5.67807827064661     -2.56949554553469
  C   3.13999120044912      5.05096124195336     -1.19001349725358
  O   3.25268305597866      6.35844479512981     -0.76888670176713
  N   4.00183371405108      4.18763404733189     -0.63283893764655
  C   3.87452359646306      2.88553742103810     -1.06934025306388
  H   0.99393177763817     -1.04728064122044      0.79673733640112
  H   1.37946642803128     -1.52022525814370     -0.86417117334879
  H   0.74815657116732      0.09631751674199     -0.52365145213326
  H   3.41587916315291     -0.94458899649259      0.53803216551561
  H   2.48542867442196      0.75566621744165      1.96486070790127
  H   2.13905979677452      1.80998367875240      0.59613158296830
  H   4.91455020968249      0.97755000790774      1.58112932982142
  H   4.21509644121085      2.61346875156626      1.58768593675787
  H   6.84256025477414      1.66392631342576      0.21459410265590
  H   6.25562921287472      3.35540370901038      0.19461228262503
  H   6.59614635953735      2.51642801441003     -1.32691235512154
  H   3.73034364863345     -0.88158771390806     -1.74315560998479
  H   1.78121737363168      0.68776955827131     -2.39628492639860
  H   3.28965990802181      0.81030747799132     -3.28160261791654
  H   1.29028951401398      3.08997571500899     -3.28458212074545
  H   2.57042073095152      6.85551674786037     -1.23250818102353
