31
Coordinates from ORCA-job 21318optt
  C   3.29086661712411      2.62448603974463      1.78023244660569
  C   2.34442293508130      2.00881860833602      0.74735978994170
  C   3.00105080559690      1.80457297367401     -0.58250932945670
  C   3.35512784279076      0.59445388575288     -1.12872457984078
  N   3.97579066441823      0.84505940997434     -2.33554940228781
  C   4.01601973152945      2.20405140740889     -2.58359326149265
  C   3.41024640379763      2.82259862197546     -1.47909714051818
  C   4.58844412476824      2.68105768052765     -3.78081857805490
  C   4.70770160876570      3.99594344923389     -4.22153009366072
  F   4.21931198069804      4.95934126832050     -3.39316518591961
  C   5.24036939045616      4.39683964753456     -5.44368523996617
  N   5.36237114008426      5.61433367679606     -5.95492478428039
  C   5.69095550182472      3.25653151810050     -6.27003330906046
  N   6.23883280369369      3.59780830404700     -7.52724682250714
  C   5.60606562503955      1.99473818694347     -5.83009271626789
  C   6.05043634912677      0.78454765882473     -6.57341081849853
  O   5.07615505139885      1.66537746945190     -4.60298688792499
  H   2.79349715715362      2.78393020262719      2.74029605281533
  H   3.66974878495173      3.58294027787869      1.42336615041083
  H   4.14996964135100      1.97024136143400      1.93804771091347
  H   1.47174027750960      2.65942289983326      0.63238220900310
  H   1.97360798890882      1.04923063473352      1.11851935206810
  H   3.21579009385344     -0.40815145889041     -0.75924354501330
  H   4.31735241898832      0.16804599614239     -2.99234526163869
  H   3.28289822884720      3.88452842511035     -1.35461509811546
  H   5.01234338522354      6.29640053777497     -5.28856685163671
  H   6.12283589725973      4.60663362202823     -7.62093396013493
  H   5.77365856243112      3.12840902376370     -8.29174550627303
  H   6.67368527989273      1.07296568882348     -7.41879609576233
  H   5.20162902158700      0.19895959440488     -6.94287878720167
  H   6.63207468584764      0.13388338768919     -5.91471045624511
