36
Coordinates from ORCA-job 21311opt
  C   7.04841641132186     -5.00305102863571     -0.75729562711521
  C   6.97019397038996     -3.88504958115914      0.25976970282950
  O   6.05136453885046     -2.91887506923595     -0.21356861343123
  C   5.79017504816903     -1.92792122242290      0.72241717613082
  C   6.54375169108869     -0.78847933953762      0.75782012036277
  F   7.55989116544687     -0.67571520422846     -0.14036847622523
  N   6.41775566121780      0.24704853278734      1.58513138066967
  C   5.39054812632914      0.09606924851006      2.48275504084359
  C   4.57684223810682     -0.99931431827228      2.56916965752399
  C   4.74811853509320     -2.11756985448736      1.69760404368173
  C   3.80592318147257     -3.25615264957848      1.63810598507322
  C   3.43425659077912     -3.84601830132952      2.99673921670424
  C   4.63290911829559     -4.43206591398063      3.72919252587252
  O   2.50660636051428     -2.94830255555088      1.02918031091198
  C   2.61838308675751     -2.34036562479290     -0.23481613135977
  C   1.23106397308021     -2.28334303769503     -0.83809518223667
  N   0.35914800084805     -1.46826399967322      0.00838849992100
  H   7.75037017093413     -5.77198204877165     -0.42945149368927
  H   7.37962150676975     -4.61394133533732     -1.72073895934479
  H   6.06624311480026     -5.45952982247987     -0.89089368166108
  H   7.95020985619139     -3.41561057003559      0.40450886493189
  H   6.63245148076938     -4.26324562931288      1.23285850289593
  H   5.24408857255081      0.92840047181249      3.16441672354054
  H   3.78485240820318     -0.99905582511691      3.31045452215813
  H   4.24707318489215     -4.04491518503608      1.01223683334263
  H   2.66991647724788     -4.61244194062091      2.84132789829915
  H   2.97417037786122     -3.06016960833255      3.60072876086730
  H   5.09846128494581     -5.22557413361240      3.13804595412123
  H   4.33992633180058     -4.85907778004803      4.69121383229041
  H   5.38663730811915     -3.66256461764878      3.90135876990912
  H   3.28795678303281     -2.92203847634387     -0.88223228643847
  H   3.03715474686275     -1.33245211444671     -0.14029040408150
  H   0.86766811319849     -3.31272748384858     -0.95799118663667
  H   1.29470988152704     -1.83074953667775     -1.83149873956147
  H   0.52277835896970     -1.74177281688219      0.97228449670259
  H   -0.61563765643788     -1.64818162797759     -0.19546803780262
