30
Coordinates from ORCA-job 21325optt
  C   0.90370369324336      0.19268056709196      0.84988312222707
  C   2.33646251462619      0.16137798069099      0.33521423332578
  C   3.33394492359231      0.43320010854231      1.45581909282768
  N   4.71180099402377      0.38143509144896      1.01005674994029
  C   5.40796066252861     -0.85255452604768      1.10781868189264
  O   4.75607124263440     -1.88066566959097      1.39663905391160
  C   6.79366010499081     -0.80453381062038      0.88302434128278
  N   7.43653605779360     -2.05921587272468      0.97300440243391
  C   8.62832407346829     -2.41183462990072      0.46336953033627
  O   9.11532814562497     -3.53281160827101      0.55765732548348
  C   7.51223870417968      0.39230293738405      0.59943921372409
  O   8.82916242503059      0.54554754182345      1.05080347407871
  C   8.91906756688899      0.57050994724309      2.46443944877817
  C   6.70598336203577      1.55035394959166      0.47561065160905
  F   7.24949746108758      2.72671419782574      0.01437026555547
  C   5.36882308553739      1.52808862374314      0.62521912569102
  O   4.54886395532221      2.56668594942743      0.25774911768394
  H   0.18455669914883     -0.00310433116199      0.05292133721800
  H   0.66505309031944      1.16764804380141      1.28279442538293
  H   0.75559052742023     -0.56060130829280      1.62688492287061
  H   2.47799465589954      0.90750857066218     -0.45004239981833
  H   2.57124423678338     -0.81713532666836     -0.08781053681232
  H   3.21937201148940     -0.32851727185873      2.22817653901992
  H   3.14590511228813      1.41699455352674      1.89190889061591
  H   6.86426174174104     -2.78919217336549      1.38206948889620
  H   9.14039804591842     -1.58556827501920     -0.04606952085330
  H   9.96696938367388      0.72856167507128      2.72051630527037
  H   8.57350714134714     -0.37568394182482      2.89277878501666
  H   8.31405592119920      1.38603615183493      2.87589844257658
  H   5.13266246016263      3.29077285563750      0.00185548983478
