36
Coordinates from ORCA-job 21335opt
  C   7.11187428297917     -1.06475791971433     -1.82169031645580
  C   6.67977890678366     -1.12347210619232     -0.37105707802010
  O   5.28483449091306     -0.93694964018969     -0.34622977821784
  C   4.64551611938472     -0.90162859139718      0.93852433963430
  C   4.90358744811739      0.47384142840484      1.56604220800126
  C   3.15583749226559     -1.03062208149223      0.61401587951848
  C   5.10489486204030     -2.01879480982918      1.85634279115701
  C   4.95263072801034     -3.37195214295058      1.50107484810057
  F   4.94054056218386     -3.64672632281473      0.15945064392171
  C   4.94319323038445     -4.47882687785590      2.35727054026505
  N   4.90163147804221     -5.76587918708803      2.03743233100601
  C   5.04752181823872     -4.10557121971424      3.78757731913013
  C   5.21305003117111     -5.19869149348086      4.80009038268563
  C   6.63222541929949     -5.76456035907529      4.77040022738125
  O   7.60416506472592     -4.76996018980286      5.06663928223599
  C   5.02929245015141     -2.81236186910383      4.14761196455247
  N   4.86385754870340     -1.76368592441693      3.25425981951379
  H   8.19046874343246     -1.21042045231283     -1.90599316376127
  H   6.85170818365051     -0.10129521916341     -2.26329498440050
  H   6.60782146830902     -1.84934764836756     -2.38682827047343
  H   7.19001308002707     -0.34455347113624      0.21139768008933
  H   6.94459873521931     -2.08584820528301      0.07269785961169
  H   4.71174690877449      1.24007087830434      0.81351635340399
  H   5.93727313280274      0.57017122694650      1.90768631969051
  H   4.23673302691337      0.64643257377759      2.41286446077150
  H   2.81782044153039     -0.19793186708750     -0.00924502554866
  H   2.58412725710491     -1.04487478514445      1.54400502461146
  H   2.98924740942776     -1.96617454396142      0.08187033206771
  H   4.84706545679309     -5.84529951436563      1.02453107617828
  H   4.51958376632830     -6.01053267072298      4.56875136543054
  H   5.00338767499752     -4.81696042853766      5.80388905099291
  H   6.80726995539581     -6.20404568628792      3.78542909539880
  H   6.74919359313376     -6.53792130274077      5.53256499523554
  H   7.38108573838359     -4.00695678367414      4.51637935637109
  H   5.08237270452083     -2.52129012268181      5.19146406716213
  H   5.27505078985997     -0.90462267084765      3.58155900275834
