30
Coordinates from ORCA-job 21343optt
  C   0.92512090208325      0.27483114237224      0.05982051271196
  C   2.42322687549947      0.07168601674887      0.12772139218412
  C   3.20417394639222      1.20413888975934      0.80309066035146
  C   4.53954151640087      0.55272110491491      1.17353778347702
  C   4.22000424728380     -0.97314767944971      1.14916324651035
  N   2.78096288149562     -1.12445153591193      0.89785525553371
  O   5.48916650948339      0.90597376429139      0.20119931486503
  C   6.80000977133542      0.44377627768739      0.51565106846457
  C   7.73367029475999      0.67324914560249     -0.62788035220459
  N   8.65195210541175      1.68877888385081     -0.49952093347989
  C   9.46140018701886      1.78393251311205     -1.61262824538851
  C   9.35719688532435      0.96943631452587     -2.71935322908212
  N   8.44806369384501     -0.01917807235527     -2.83847169987763
  C   7.67492373810013     -0.10562845812349     -1.74510811184108
  F   6.74234904088237     -1.08971969348463     -1.79707701730673
  C   10.47481485683243      2.79541444608056     -1.61998202565624
  N   11.29758928381242      3.60328660914336     -1.64692968811435
  H   0.68067838826221      1.16052966061609     -0.52794797384008
  H   0.51425969875549      0.41518247735032      1.06435774432394
  H   0.43728609460996     -0.58864508245960     -0.39332075064532
  H   2.82491203302304     -0.07092862427703     -0.88081659371101
  H   2.66286152938197      1.51616338364351      1.70205502112093
  H   3.37014703281538      2.07603053300334      0.17136712287368
  H   4.89230681965006      0.87715658371310      2.16143954481019
  H   4.50662489778901     -1.50067673177075      2.05847241489216
  H   4.76992441819121     -1.40604259421502      0.31025610334820
  H   2.28401688645678     -1.08066075278543      1.78417808251704
  H   6.75562258048119     -0.62307571806320      0.76547216824485
  H   7.17858085388596      0.99326293617909      1.38510873862242
  H   10.03961203073631      1.11560426030131     -3.55070955370408
