26
Coordinates from ORCA-job 21350optt
  C   1.05536374139848      0.01288080964689     -0.25191676365815
  C   2.51131120486231      0.14283980013865      0.02311665118465
  C   3.19314087253988      1.31519264746796      0.19591420325016
  F   2.48477530922739      2.47810950820511      0.13787928723112
  C   4.56125506494737      1.39320635193782      0.43319285891095
  C   5.30124727594997      0.18007290824060      0.49211260905435
  C   6.67253575565948      0.08076963879671      0.66281346744235
  F   7.36492710453909      1.23697869845834      0.78655999003663
  C   7.38435277932703     -1.11135911948972      0.71316612682170
  C   8.78247960231628     -1.10507665228060      0.92501095926949
  C   9.97401233713188     -1.14970478479890      1.11110842046739
  C   6.68241432423713     -2.37928077859648      0.58208238519895
  N   7.21967478028028     -3.57144024737616      0.61738186787858
  C   5.25269999230169     -2.27706757354151      0.39720999583879
  N   4.50367962138874     -3.48027656115232      0.23601255320045
  C   4.61403977762332     -1.07277331278620      0.34849409504410
  N   3.23441754038010     -1.03805295146322      0.16714420779225
  H   0.60106871749663      0.99463646038519     -0.36392261914863
  H   0.54059788707620     -0.51731515295965      0.55771063612429
  H   0.87671941791105     -0.55485986329576     -1.17259534457609
  H   5.04082983811335      2.35310591783824      0.54965305167964
  H   11.02332788316762     -1.17377849977930      1.27122791610607
  H   8.22513880776853     -3.49444615874485      0.74565829768906
  H   5.19228947928564     -4.22988299970215      0.19152750147081
  H   3.93631225630210     -3.65467668721762      1.06200838439853
  H   2.83938862876821     -1.89480139793101     -0.19555073870747
