31
Coordinates from ORCA-job 21357optt
  C   2.98051338361055      2.83924485446407     -2.91554437716073
  C   2.35546966337314      2.49780056115680     -1.56806823928224
  C   2.79335816896453      1.12524423797154     -1.04133102089504
  C   4.28553413864500      1.04807693752812     -0.82855259816628
  N   4.96907501653837      0.33998400001658     -1.77723411266864
  C   6.27641035342063      0.35069243227009     -1.65557617619778
  F   6.93930894874590     -0.36234188603777     -2.60241182304022
  C   7.03023002939375      1.00399616395992     -0.72066657365483
  C   6.34633210521584      1.75654250363831      0.28466949080204
  C   7.03691885766715      2.53185687528492      1.25859259269817
  N   8.43892032337548      2.36004852056528      1.32787078853996
  O   6.52561506339056      3.39006201410957      2.01902383253155
  C   4.90941191246457      1.70293623649569      0.21033620791780
  N   4.15433326621715      2.35192671964577      1.22393022872754
  C   3.38298133199894      1.63322359136877      2.12404307966368
  N   2.86375067831282      2.45737770728310      3.12352251016188
  N   3.10888833586894      0.38753642431791      2.13914190112545
  H   2.64910899572141      3.81674221479207     -3.27253742365074
  H   2.71599511175045      2.09171332623717     -3.66703748995335
  H   4.06879859363129      2.85071719431283     -2.84157475923929
  H   1.26408909218356      2.51231230591274     -1.65357757812011
  H   2.62817483699724      3.25553670631252     -0.82996090549037
  H   2.53675750670822      0.35801659932323     -1.77489540007269
  H   2.24996824194921      0.90274473006208     -0.12219881143581
  H   8.10680638822123      0.98561280697947     -0.80297609419218
  H   8.75257721515201      1.40933644362790      1.19004924511777
  H   8.78333494751799      2.75411337592470      2.19158169186701
  H   4.73301942142622      3.05804646453662      1.68839573812330
  H   2.62327854686396      3.38466114814303      2.80897889120733
  H   2.12770966669780      1.99795713146606      3.63627661564990
  H   3.63832985797601     -0.09171834166910      1.41473056908694
