38
Coordinates from ORCA-job 21363optt
  C   0.90354968801411     -0.87514085532438     -1.03176977067364
  C   2.21463305761971     -0.34458213225192     -0.45811581677125
  C   1.93401047513290      0.91558601245358      0.37494934715018
  N   2.83390778420423     -1.37972853477416      0.32350414658908
  C   4.12635605119947     -1.23035072162117      0.57172120040165
  C   5.02817148069447     -0.21689452919317      0.18219172270777
  C   6.36246027068150     -0.15636349255620      0.60099035966353
  O   6.93925836892909     -1.30618637349063      1.19705388660114
  C   6.08766973048089     -2.25321260970623      1.68866461615581
  C   6.78750548272520     -3.28960506197531      2.49727365341737
  C   4.78441950301080     -2.24677574598464      1.40163959025769
  F   4.02258451017343     -3.24224837459199      1.90338160472215
  C   7.44500656287082      0.65330441975510     -0.06816109152653
  C   8.17930672160851     -0.21898136934915     -1.10588736503355
  C   6.85630691974628      1.87174972390615     -0.77379804134033
  C   8.44496076407871      1.12387426029218      1.00455906774641
  N   9.63682602402259      1.77006595790398      0.42768288161828
  H   0.38159441432060     -0.11344062040184     -1.61914001289600
  H   0.25589682798699     -1.19360206191703     -0.21110527804124
  H   1.09355966286610     -1.74378191858460     -1.66366500647529
  H   2.85211025130711     -0.04591001751040     -1.31232099447592
  H   1.22158887809503      0.66744085411005      1.16596588118900
  H   1.50989440264266      1.71791534720902     -0.23806899571236
  H   2.84708363863239      1.28067317192183      0.84679560212999
  H   4.65579203671359      0.62699212068430     -0.37957117576635
  H   7.55153537201755     -3.78605592398097      1.89130223246715
  H   6.08199590838684     -4.03302367548681      2.85977980306543
  H   7.29433984912818     -2.82898352531089      3.34877348609226
  H   7.45232878105445     -0.63560532085367     -1.80570556827290
  H   8.68756436259622     -1.05153288361321     -0.61493658080596
  H   8.90902426670241      0.36459936196056     -1.67474987718607
  H   6.25237620961576      1.57228186958893     -1.63194410590899
  H   7.66469006647735      2.51732124507059     -1.11974225866939
  H   6.22060931437245      2.43835650088018     -0.08924426850296
  H   8.69637923329341      0.26471931411704      1.63410857234122
  H   7.93559663212850      1.85592946452106      1.63533775868965
  H   10.21790224184852      1.07376983090560     -0.02571495820151
  H   10.19920425462085      2.17042629319821      1.16896575325445
