33
Coordinates from ORCA-job 21379opt
  C   1.35638350718593      0.31625574467231      0.19175199966328
  C   2.78427571586634     -0.17035881546386     -0.07425963522908
  C   3.12411671616810     -0.20524945112360     -1.57024414168318
  N   2.13898970969925     -0.89581202210144     -2.38978132246723
  C   2.25894006057089     -2.36913202597655     -2.33680309959847
  C   1.80816885498917     -2.92431494519171     -0.98865857586847
  C   2.72568488223192     -2.73282677109413      0.19990751315992
  C   3.14039409824611     -3.85113132872614      0.93642195698922
  C   2.86828928948397     -5.26480376657401      0.49316251310431
  N   3.83589937121171     -3.74009160681857      2.07641008346331
  C   4.11224885750350     -2.55187103269776      2.50265832103719
  F   4.78730799111419     -2.46786836226584      3.67965892212849
  C   3.77949893679535     -1.35780724639170      1.87742080896066
  N   4.19908471341254     -0.13936151525728      2.44373519790270
  C   3.08732426849930     -1.45622886226224      0.66903495823362
  C   3.62368268720457     -2.85781458940904     -2.73967531855641
  O   4.19906144650218     -2.33169569468488     -3.75460523990346
  H   1.19416253383909      1.28431378423747     -0.28780531836707
  H   1.16927470407502      0.42000421667037      1.26428079537842
  H   0.62885800603085     -0.37773203102385     -0.22389482949148
  H   3.47133181582321      0.57809408113584      0.32880767202736
  H   4.12925208705782     -0.62495946371731     -1.69812352385374
  H   3.14692165472456      0.83590705126954     -1.90733382314810
  H   2.37266285153243     -0.67230822986809     -3.35353010812359
  H   1.48977711807389     -2.69943199899422     -3.06795628872775
  H   1.63823232081646     -3.99070562378651     -1.12692459510735
  H   0.83135876715133     -2.49033550932602     -0.74976860943170
  H   1.80247595242664     -5.50388908230941      0.52132584668759
  H   3.39374263372368     -5.94368975877836      1.16106947819956
  H   3.21532531208517     -5.42642837922458     -0.52896963558015
  H   4.47790046804809     -0.25131054428312      3.40736417350141
  H   3.51967784793613      0.60115089744177      2.35161735403011
  H   3.91669481997049     -3.85356711807697     -2.36129352932989
