31
Coordinates from ORCA-job 21373optt
  C   3.39292187218002     -0.35822790701764     -2.44905233175498
  C   4.26875469441944     -0.30796124840046     -1.21516075807848
  O   4.22293535739888      0.98609472798650     -0.68878818460986
  C   5.02521416211548      1.13321961653941      0.46961448401898
  C   4.94970699169170      2.51830894878435      1.00721443234553
  N   5.56424961276495      2.67068092131256      2.25790722616626
  C   5.50487783970611      3.87428642696933      2.75511530289893
  F   6.06371795396693      3.98396978314764      3.98623896450601
  N   5.00836319997258      5.00349717679073      2.30657871868922
  C   4.49716439123074      4.84524005878818      1.03555959707894
  C   4.42720894060090      3.63220576365940      0.37911451547279
  C   3.63629503325589      3.83720655755068     -0.88901105048321
  N   3.59889142856272      5.30435121445116     -1.10293180816822
  C   4.71378994802016      5.70685330787857     -1.95056598791418
  C   3.69869056560781      5.87140874275522      0.27139276484866
  C   4.22406612728321      7.23690771087448      0.32422010338564
  C   4.63781303687259      8.35920801924068      0.40815038636048
  H   3.40001198944910     -1.35735558807330     -2.88788029967145
  H   3.75154676506023      0.35400655954207     -3.19259951090025
  H   2.36693591351002     -0.09393756169241     -2.19225450246610
  H   5.30489341293890     -0.57851251933369     -1.46686781954131
  H   3.91932609808286     -1.03360227269541     -0.46574810615111
  H   6.06830088804699      0.86145893016437      0.22060596339052
  H   4.69899111533768      0.42074696381163      1.24410258782968
  H   2.61606577486163      3.46085615688783     -0.75946638342035
  H   4.05472995702285      3.34206673573688     -1.76435224229799
  H   4.59727350587644      5.22637161201962     -2.92311492529695
  H   5.69115313552630      5.42558368107217     -1.53108795491228
  H   4.69862334771207      6.78567422437792     -2.09876859994518
  H   2.67085058780834      5.92810074398900      0.67120022028525
  H   5.02263635311640      9.34529251288247      0.49863519833501
