25
Coordinates from ORCA-job 21380optt
  C   1.12359098083508      1.04932037202466     -0.54360090074682
  C   2.47828931504110      0.57640028761947     -0.10250657069033
  C   3.51177319943947      1.51451610149171      0.16441009672463
  F   3.15707670863028      2.82183186051956      0.33946440989336
  C   4.83961435041825      1.20326313945423      0.22281737319752
  N   5.30196021789618     -0.04615465131631      0.04861824691729
  N   4.28716497834675     -0.95868000476666     -0.09210058025387
  C   2.92381546742232     -0.75372938267198     -0.22884290899521
  N   2.28710009219310     -1.88844414129143     -0.50442425879236
  C   0.96208790425451     -2.16014046433876     -0.08552856826538
  C   0.62442424178010     -1.74000488990132      1.35848386347587
  C   -0.12539749755295     -1.68650684316911     -1.00928952184628
  N   -0.95076298703607     -1.35526542939746     -1.73356206343964
  C   0.83828455554899     -3.70335019544489     -0.13990022721593
  F   1.73380851679532     -4.29016038136158      0.65399442419880
  F   -0.37432378174018     -4.12258629814961      0.28086977133381
  F   1.00594213690025     -4.19068086529651     -1.36815749965436
  H   1.10342844134187      2.13841072822532     -0.54183629254861
  H   0.29235153326857      0.71762137779457      0.08599355632579
  H   0.89398564230113      0.71076638861037     -1.55681654909928
  H   5.57907182232868      1.97270160799717      0.40460283016575
  H   4.57632382740309     -1.91597927188613     -0.20158095867446
  H   0.81647625461553     -0.67815853704963      1.47969144604794
  H   1.29132840291058     -2.28314591466604      2.02746699522769
  H   -0.41241432334203     -1.96184459302959      1.60973388671408
