35
Coordinates from ORCA-job 21392opt
  C   3.07140950089030      1.85706805866863      2.26675603807608
  C   2.44387151472092      2.27657366768710      0.94413385783441
  C   2.87203379132428      1.34810738931924     -0.19399386907368
  O   2.11259380524438      1.77035932624236     -1.35728071589783
  C   4.34160942902917      1.32373699818497     -0.45417171418666
  C   5.07581180267806      2.54662713984168     -0.64259780956890
  C   6.44733801641511      2.58063794882238     -0.67553431352999
  N   7.14931277542616      3.78157608025028     -0.95365808197903
  C   7.23152362110386      1.40627574798124     -0.49229959631217
  C   8.70583858214486      1.43457062446102     -0.55349683912842
  O   9.37327602299245      2.03199200857650      0.60197908996562
  C   9.08931108323359      1.32774074377830      1.78196037758035
  C   6.48949239509423      0.23469333401630     -0.17973075359283
  F   7.20102945565015     -0.90714602716811      0.04602814723984
  C   5.12576795552154      0.17068993842932     -0.15048256389101
  O   4.51161100264482     -1.03884398563098      0.14564663875659
  C   4.11548711933230     -1.73914879193656     -1.01246730302810
  H   2.73096899373030      2.48561782188540      3.09245235868143
  H   4.15922953622521      1.92266080382724      2.20364189615568
  H   2.82063119526393      0.81962103101418      2.50200047536029
  H   2.73807683817603      3.29801355164651      0.69063404792472
  H   1.35131391711613      2.26650574965471      1.01240294038484
  H   2.55675933784247      0.33312561026076      0.07185614134749
  H   2.69846053392492      1.60280588866747     -2.10446294683206
  H   4.52652431968249      3.47018430829034     -0.80313723610537
  H   6.55701444889443      4.59081379929138     -0.83004695913509
  H   7.97340613496073      3.86696020379821     -0.36858062263644
  H   9.05842257779185      2.05614380550104     -1.37976564956169
  H   9.10494927671366      0.42213878946925     -0.67456431395749
  H   9.61626290771708      1.82064788387652      2.59979563471770
  H   9.42973554561401      0.28568189936445      1.71202820428005
  H   8.01507719819098      1.31651475223867      1.99546815485499
  H   3.59632106503357     -2.64171158584579     -0.68732379298733
  H   4.98638018470259     -2.01638225264443     -1.61614133886299
  H   3.44114811497304     -1.13185226181968     -1.62604758289305
