29
Coordinates from ORCA-job 21393optt
  C   0.91256242884193     -0.31388641564709     -0.04300228751259
  C   2.40375808274857      0.04252755317463     -0.04077125226560
  C   2.92246407477685      0.36872118460913      1.32348225753239
  C   2.98852009796149      1.61878786784482      1.91065182067159
  S   2.45888296137325      3.13104976368132      1.19293860302106
  C   3.04221413893648      4.21319015257444      2.42209965516615
  F   2.71914529807648      5.51641800106419      2.15806221171323
  C   3.44080132347643      3.89479996617232      3.71281328722494
  C   3.65595272733038      2.58898246395142      4.12292796994193
  O   4.11899677235196      2.26241561342015      5.38973547687179
  C   4.25300168720014      3.30131421034568      6.31627666484357
  C   3.46341766824555      1.49020804930329      3.25521099461969
  C   3.68857826524450      0.10621355724870      3.44828188324255
  O   4.19277192526769     -0.47917702662382      4.59481777199094
  C   3.36387911072781     -0.58697763917901      2.29517969869926
  C   3.49945004915837     -2.06234375890330      2.08808321015994
  H   0.55478974408735     -0.57631911869952     -1.04330665880364
  H   0.32789288785406      0.53096700113625      0.32554134876209
  H   0.72663203505688     -1.15800554492372      0.62408204023083
  H   2.56881017577059      0.89301921648299     -0.71116680749311
  H   2.96825810031954     -0.79731539497987     -0.46145328096191
  H   3.59678623156387      4.73646086632660      4.37393879842384
  H   4.58948120001561      2.85203634595095      7.24943221939719
  H   3.29683349958198      3.81063359749373      6.48022155457244
  H   4.99193458874397      4.03916825781507      5.98576858451030
  H   4.31865665978481      0.23736630945789      5.22700175384042
  H   3.82818843507816     -2.53924312124850      3.01291472383359
  H   4.23387627979987     -2.30746200955694      1.31158696748330
  H   2.55546355062531     -2.53154994829186      1.78865079028371
