26
Coordinates from ORCA-job 21397optt
  C   1.30970026730833     -0.48664604761622     -0.42498418241499
  N   2.60492797224207      0.07344110945727     -0.07037500770725
  C   3.41242231985621     -0.68193543059098      0.77432746202750
  C   4.13434151674306     -0.06741636139805      1.75342511750759
  N   4.19339055569740      1.27991606830371      1.95257407619555
  C   4.71480666198781      2.14103166249977      0.87648843830471
  C   4.16068256436438      1.98280455772359     -0.52471843093374
  O   4.65571799855232      2.81651385871230     -1.34548683436259
  C   3.09789186403962      1.10001507430781     -0.92976265508307
  N   2.49081913580651      1.21676122025172     -2.07692425959989
  O   4.88198536158714     -0.76311522671737      2.66448380487971
  C   4.82599799545523     -2.09100655717925      2.65833649237244
  F   5.51156411419235     -2.59486429488560      3.68230538444753
  C   4.20070269400325     -2.83171904551554      1.74530065736007
  N   4.14244866046236     -4.22667006033166      1.74585594965179
  C   3.48085948714924     -2.13232334395183      0.66431434697919
  O   2.96490063094708     -2.80270463850766     -0.22412356990152
  H   0.96738416543464     -1.11822212179413      0.39520163793474
  H   1.33992050815700     -1.07404891446209     -1.34207090515907
  H   0.61237528185212      0.33727900362438     -0.57169851425873
  H   4.62305866150232      1.49389646826062      2.84166506271431
  H   5.80602754922310      2.02713123228285      0.81411644116848
  H   4.52053641551838      3.17463609547684      1.17908309317405
  H   2.91492883139913      2.02311658935779     -2.53315201894792
  H   5.01376288797449     -4.67747388597613      1.98282154011753
  H   3.79184589854437     -4.52539701133214      0.84099687353355
