26
Coordinates from ORCA-job 21398optt
  C   1.05037657236322      0.25084548378446     -0.32784559491844
  C   2.50148177143275      0.00990008011981      0.08521005792443
  C   2.77780816051363      0.60800591703579      1.48456593065100
  C   1.99718387814075     -0.01604945364108      2.54957685755337
  C   1.34660394020889     -0.54139941681243      3.40863875828974
  C   2.99584761471082     -1.41605967515552     -0.01844546243129
  C   4.36728739734540     -1.61304776698206     -0.38236131194496
  F   5.27971118597590     -0.64270772281713      0.10056124164202
  C   4.89513565891373     -2.92059998664694     -0.43727905563173
  O   6.22489248763374     -3.12842478182755     -0.77384261183915
  C   4.09999377786239     -4.01550710550831     -0.28261637404874
  O   4.58155682079317     -5.27482204933535     -0.51262436263496
  C   2.72224441560817     -3.86587286445091      0.05017075933572
  C   1.89529109946401     -4.97782005425391      0.28831461280789
  N   1.21689575763921     -5.89659375275911      0.47841977429462
  C   2.23896420862635     -2.53943051118872      0.16269571622590
  F   0.91557175781260     -2.42820816239804      0.42403229738813
  H   0.87091302180587      1.32513104777557     -0.42419348868123
  H   0.35424909628086     -0.14823019423270      0.40717048372227
  H   0.83843327392076     -0.22206612512499     -1.28703872025691
  H   3.13899715625660      0.58351685251610     -0.59482952842856
  H   2.55461531909611      1.67991469729270      1.46676742771255
  H   3.83968643361871      0.49497484892150      1.70855880325721
  H   0.77715951802876     -1.03625656414758      4.15695246933714
  H   6.57858122335632     -2.27087709114777     -1.03853866919018
  H   5.51251845259119     -5.17531564901576     -0.74602001013584
