30
Coordinates from ORCA-job 21408optt
  C   3.59466630446944      1.53511729176582     -1.68270592853609
  C   3.92602436686608      0.11536586890395     -2.08344488464665
  O   3.40222271797241     -0.39360737864487     -3.04424731155125
  C   4.96446834502680     -0.61744153759185     -1.25443144837451
  C   4.82085790446934     -0.33025103102986      0.24250960082937
  O   3.56710485162041     -0.72533793864185      0.74799704360685
  N   4.90097924369281     -2.03585368740039     -1.51091790988181
  C   5.86426284835562     -2.81535899883849     -0.80195427984763
  C   7.27424259971210     -2.77312280160535     -0.89373339636924
  C   7.82077227800256     -3.54196522665250      0.14845262436656
  C   6.74844561220342     -4.05645241720649      0.89408770310708
  C   5.51918206471366     -3.60414325007175      0.30694147296771
  C   4.25988900312529     -3.89486303151536      0.88973381757176
  N   4.25661337002891     -4.84774560106201      1.93850975778434
  C   5.44199808313902     -5.19932632570080      2.58612884922547
  C   6.63345350217572     -4.84366037969098      2.06998389056314
  F   7.76587272669905     -5.26104531896843      2.69657598186803
  H   3.03239962428552      2.01411402516750     -2.48089923948502
  H   4.49989483212418      2.10288067114408     -1.46223017456273
  H   2.99461391759595      1.50317488253781     -0.77042645041914
  H   5.93453126802494     -0.16321953738635     -1.55137574837587
  H   4.92608000516031      0.74152257599524      0.42304112304479
  H   5.63407056620113     -0.84417104248809      0.76236543993690
  H   3.60305649984738     -1.69397073560581      0.84945793324752
  H   4.82752307455024     -2.22257533904017     -2.50095903856276
  H   7.83834412478074     -2.23826746243280     -1.64782970937247
  H   8.86855638834333     -3.72598874419927      0.33478300197866
  H   3.34676756454849     -3.85081241804942      0.30689136184719
  H   3.43600026177553     -4.85811878956862      2.52003396751543
  H   5.36110605048903     -5.80787632212267      3.47466195052436
