27
Coordinates from ORCA-job 21413opt
  C   0.94696462039192      0.20378910029297      0.03493104933091
  C   2.47152414532747      0.04915103584019      0.04155821030758
  C   2.90314949713503     -1.42706318960416      0.04079532085159
  N   2.64709748785681     -2.00197476465459      1.36475240664250
  C   3.56964905999726     -1.40077523297880      2.36026627047364
  C   5.02342813105451     -1.73383264397751      2.08635043741219
  O   5.38632507339937     -2.92038615528174      1.98962879734594
  C   3.39557652949506      0.07935102153304      2.40175570771847
  C   3.72443495116861      0.83664409399431      3.50528847006803
  F   4.04943267573583      0.24729919814055      4.67319904354806
  C   3.71145155855054      2.23175025396221      3.47469690319762
  C   3.33488006358747      2.77311361863693      2.25561535486444
  F   3.31084720762745      4.12213932000738      2.16962710873285
  N   2.99701719165165      2.12991800873756      1.18287647439759
  C   3.03802405438597      0.76826016593114      1.23992740061884
  C   2.21931259010900     -2.19837985673899     -0.99656040316471
  C   1.68201464099617     -2.82500826300310     -1.86847108456762
  H   0.52128567505850     -0.18260172819097     -0.89251298385838
  H   0.68911644852124      1.25817291101939      0.13555013130355
  H   0.52026375748043     -0.35060194119263      0.87212159404476
  H   2.87414588163124      0.52218922597962     -0.85795594187658
  H   3.98083496623755     -1.45184088867722     -0.18771760828828
  H   2.88976064453569     -2.98866747981579      1.32839086927190
  H   3.28526382048630     -1.83786512975932      3.32576277388915
  H   5.73387340967215     -0.89260957369491      2.06782168166210
  H   3.98157780228896      2.83720293041150      4.32481532042855
  H   1.20574811561756     -3.38237403691702     -2.63751330435482
