36
Coordinates from ORCA-job 21411opt
  C   3.73374205398201      0.36582974683384      1.31597422518484
  C   3.09963943009211     -0.47510415862365      0.22118359974493
  O   3.02206890870985      0.22411403589769     -1.01426792818048
  C   4.26197185905702      0.43617097163822     -1.58359709054761
  C   4.75624744710904      1.67898065623687     -1.65070001224443
  F   4.03670387211059      2.75820009162992     -1.23866575427478
  N   6.04639985083321      1.96506910385650     -2.05901109590386
  C   6.13605618947359      2.49201183706354     -3.42216490821873
  C   6.98228104940769      0.89283146715093     -1.78465973602864
  C   8.31609334739682      1.34490222248901     -1.31112585625755
  O   8.41468527694476      1.60632469512004      0.10773031817936
  C   8.22921606191580      0.45074987087062      0.87797885757673
  C   6.52842025201871     -0.41240720928524     -1.82507091150733
  C   7.44657227660412     -1.60047164300883     -1.75430479776646
  C   5.12789560924284     -0.70415775164650     -1.92883751764357
  N   4.71398801896343     -1.94083396601940     -2.21228037910631
  C   3.32797978324650     -2.13715010202121     -2.55077678906734
  H   3.76184047016446     -0.19733189177637      2.25167448082722
  H   3.16828639880186      1.28552266747119      1.47071714175454
  H   4.75606095982505      0.63463985931268      1.04434288882695
  H   2.06714573780899     -0.72607098547265      0.47236556848196
  H   3.66055664601861     -1.40543004201547      0.08268128690972
  H   5.41341233846502      3.30108014480462     -3.54486523899777
  H   5.93456409296259      1.70584160886811     -4.16184736919730
  H   7.13766383098449      2.89052473074801     -3.59251732969492
  H   8.57736491860238      2.30374249585053     -1.76218245282604
  H   9.09735192885619      0.62000157446829     -1.56657566399388
  H   8.34903060773060      0.73092328093004      1.92509807388856
  H   8.97395609771830     -0.31856434744091      0.62731160197368
  H   7.23497094583858      0.01543544055420      0.73166706593846
  H   7.25062572280142     -2.19277081644154     -0.85571100332077
  H   8.49929240238312     -1.32364448367575     -1.77159763101895
  H   7.23035320608609     -2.26034643528260     -2.59674889909326
  H   3.23882157234604     -3.05763650726721     -3.13699361950566
  H   2.90303735558394     -1.31538555447679     -3.14624004349188
  H   2.65970347991360     -2.25559060734073     -1.68198308139931
