28
Coordinates from ORCA-job 21420optt
  C   0.90953486003466     -1.02987159529955     -0.19641612266579
  C   2.06752668656540     -0.04870658987901     -0.06184942895476
  O   2.86290629854491     -0.49490848184492      1.04895035622909
  C   2.86658063564106      0.13280130180788     -1.30306720602341
  C   2.70213648873379      1.12934337344169     -2.31080718839376
  C   2.99537996910376      2.59960222254936     -2.58573847631719
  C   4.14538545732371      3.12849918550245     -1.74494390622104
  O   3.38220916899631      2.65891207342046     -4.02163469361107
  C   3.62272806839039      1.35353603776536     -4.43582131397479
  C   4.41787540980281      0.76038372202661     -5.38782743773787
  N   5.08233838103106      1.47256107014903     -6.40519752936927
  N   4.65596351008122     -0.57753459202387     -5.34152088449854
  C   4.29625425385556     -1.29009343033201     -4.27869718539474
  F   4.78320997831425     -2.55000945636127     -4.23225904620539
  C   3.49620710562990     -0.80021131338347     -3.26929129907923
  O   3.20898106323402     -1.11630838925502     -1.96415816452835
  C   3.11911876605001      0.51304620212601     -3.46594599082304
  H   0.36316614719165     -1.10487613179129      0.74587429069037
  H   1.29309707963130     -2.01357557265591     -0.46319247957261
  H   0.22964761737287     -0.69274335472506     -0.98080980177848
  H   1.66647183308781      0.94578809476080      0.17250338639351
  H   3.76684665505217     -0.24819909056927      0.81916694797764
  H   2.13211465598878      3.26514099140103     -2.51038753200650
  H   3.87332912051763      3.09261260501311     -0.68788970926312
  H   4.39354582881764      4.15302604092547     -2.02559309374728
  H   5.01781928958671      2.48977395922992     -1.89067900077283
  H   4.53056646400387      2.23123842329170     -6.77815505303358
  H   5.38005920741660      0.83877269470974     -7.13361243731785
