25
Coordinates from ORCA-job 21427optt
  C   1.30129254645097      0.13276902783872     -0.68736922249699
  C   2.58324879697684     -0.27018261941274      0.04973506071039
  C   2.99261644172038     -1.67519151021194     -0.24264405151346
  C   4.09714559524369     -2.10571802728539     -0.93833119285204
  N   5.08532064273870     -1.30694901964047     -1.47731827869897
  C   6.05433028544456     -1.82551971012543     -2.07690740186088
  F   7.01025882802096     -1.02181808019135     -2.60135014524444
  S   6.44873967348665     -3.48575529798086     -2.39749027875782
  C   5.09749345232138     -4.32641145003120     -1.60896295026151
  C   5.20607164476481     -5.72596195767127     -1.68286716837640
  O   4.39437236556755     -6.56618472792651     -1.21516930461761
  C   4.08400243470251     -3.57040324185454     -1.00497792099452
  C   2.91264336954421     -3.97991671310146     -0.31435728434089
  O   2.44753615293971     -5.23733342712779     -0.09276067772519
  C   2.26545587490541     -2.84995891444001      0.14557780520023
  N   1.04094784586408     -2.85940803035401      0.84428001156421
  H   0.98603878285424      1.14506401641297     -0.42109522883644
  H   0.49246182095113     -0.55978957643383     -0.44880949683342
  H   1.46418466839756      0.09300835791869     -1.76527460416412
  H   2.42645353670808     -0.13775616191283      1.12840721283282
  H   3.40217682379158      0.39510165561484     -0.23083263369945
  H   6.10066618782856     -6.10262745775747     -2.20703372407029
  H   3.11752629163136     -5.86538834743797     -0.47959387668164
  H   0.84005411863885     -3.79477562661539      1.17752553596509
  H   1.03796181850618     -2.21289316027270      1.62361981575333
