32
Coordinates from ORCA-job 21423opt
  C   4.03010494431469     -2.76345760948937     -1.01679350728036
  C   4.49344384714349     -1.84808917323724      0.10614033857973
  O   4.32332855072574     -2.44933871170861      1.37177195341544
  C   5.93108636200562     -1.37418642988478     -0.10140736196743
  C   6.41450737302387     -0.51188546706103      1.07160368347682
  N   7.03942439916959     -1.27425204118204      2.13105640769216
  C   8.26756148483376     -1.84032644635689      1.94186970475338
  N   9.13791991769529     -1.55296426533245      1.05020412162185
  C   8.67578491108089     -2.87558362859513      2.97364292853192
  O   7.63010421150068     -3.36170530933501      3.78178110615046
  C   6.75131841668535     -4.23545859398664      3.18719889795451
  N   6.82803009388742     -4.43976900910728      1.91158596854133
  C   5.84056015852059     -5.25239108164571      1.36294617036512
  N   5.03235881153779     -6.07315954625515      2.14279496175597
  C   5.03587709641009     -5.80724300856897      3.39484361151001
  F   4.22747335857123     -6.56443436912305      4.18320878334347
  C   5.79297705762594     -4.81826472318685      4.04675891560277
  H   2.99591179264015     -3.06646505178602     -0.85116522787094
  H   4.64961362096451     -3.66231174100109     -1.03796048732388
  H   4.10355094046376     -2.26151172953287     -1.98463912370779
  H   3.85087893383330     -0.95896872129868      0.12720707022046
  H   4.73343778903013     -3.33860411981648      1.35513632293272
  H   5.98111172607042     -0.80701047121319     -1.03671550656030
  H   6.59185457138734     -2.24212293235240     -0.19968604976849
  H   5.56722685486530      0.02050290485686      1.50848481615790
  H   7.12047584785541      0.25021879264996      0.73421065625652
  H   6.39803680152303     -1.82722303871200      2.68422436790716
  H   8.80007342753978     -0.84500086591998      0.40378383653090
  H   9.38282928613006     -2.40808918800280      3.65981845381710
  H   9.16913506037979     -3.68428515825998      2.43632752978911
  H   6.01193008072180     -5.58238683464664      0.34694039175283
  H   5.78807227186222     -4.66923243090817      5.11282626581935
