25
Coordinates from ORCA-job 21428optt
  C   3.25690533923287      1.43240544718757      1.19098164857311
  C   2.77275731732262      1.89181001678674     -0.16138958526545
  O   2.14691846644457      2.91425205376390     -0.31198768924388
  C   3.29331468079854      1.03760813101358     -1.32819684776843
  C   2.83102899276260      1.55880198353344     -2.62065970783498
  N   2.45605589787683      1.92667950674341     -3.64019615820908
  C   4.78502584281238      0.86093692812985     -1.22137118693121
  C   5.68907096828108      1.94644035733667     -1.17455691243048
  F   5.30358456171496      3.15170190968408     -1.66749461909878
  C   7.01607294148310      1.77279944372283     -0.80921198822984
  C   8.17576577790026      2.55662025265482     -0.74453813507101
  C   9.20028748049251      1.74004215380463     -0.20559656750609
  C   8.70559351460308      0.48600569245919      0.03882564322124
  N   7.37291363666740      0.48955674403773     -0.36282937022816
  C   6.39848225661012     -0.50180867515590     -0.30019365928508
  O   6.82041997261320     -1.70310710052533      0.19344067178899
  N   5.20494449060020     -0.35099205451642     -0.70385322033254
  H   2.59709476854873      1.82540607577891      1.96153470202751
  H   4.26881389417651      1.82991518448604      1.34430314115724
  H   3.33440096632183      0.34656761908031      1.24263618890809
  H   2.87888469620031      0.03273823159350     -1.20974102175933
  H   8.24168344545115      3.59307274299416     -1.02459839906808
  H   10.21603095668048      2.04352168090277     -0.00344849373848
  H   9.16416172149881     -0.37248663385265      0.49767568827548
  H   7.74778741290574     -1.82248769164384     -0.04053412195077
