34
Coordinates from ORCA-job 21430opt
  C   1.34112960141889      0.44303645936282     -0.47417010718643
  C   2.82373735175742      0.67942734111833     -0.22035084017466
  C   3.12624643214228      0.97227641031125      1.24367376619777
  O   2.61335488485432     -0.10387046526153      2.01097836178682
  C   4.61857610335281      1.18827721980864      1.47266253387527
  C   4.98360069853702      1.96939592218365      2.74432945447924
  C   4.26177992588013      1.46599428909101      3.99442804622776
  O   4.37542330766109      0.06737399692146      4.16479702852031
  N   6.43265083455125      1.95996434012217      2.97278754697843
  N   6.84273956940343      0.66608754965293      3.37086372260843
  C   8.05746868859038      0.25653536307983      2.97778813801572
  C   8.96461328504743      0.92393778969283      2.13474515080943
  O   10.09191713647908      0.50521158601818      1.76315921955097
  C   8.42271335047160      2.22023943333135      1.69394290482493
  F   9.21805358101369      2.98806621246057      0.91677027907873
  C   7.22558143240648      2.69198216461909      2.06726703319865
  C   6.74073515466014      4.05371699272755      1.67762885335138
  H   1.14665635784010      0.22674497525250     -1.52616094318863
  H   0.75660933223906      1.32433372311866     -0.19810957696733
  H   0.98525820589369     -0.39429518596143      0.12483263753692
  H   3.18096089535013      1.51764400034059     -0.82511116800014
  H   3.40226908809026     -0.20204619711817     -0.51247342963939
  H   2.58396353166337      1.89346452356077      1.52159262455145
  H   3.19830389825947     -0.26039093494157      2.77426246298762
  H   5.04293056944935      1.72508697116572      0.61880139252976
  H   5.11479729419569      0.21395740708075      1.50455270656679
  H   4.67926415151031      3.01211493273399      2.62159231054731
  H   3.19623203140511      1.69824295730577      3.91412485664779
  H   4.66858017472352      1.99859059016349      4.86070222060540
  H   5.34374845694763     -0.08576403914774      4.00520454458588
  H   8.34233940846673     -0.72412411738350      3.34416340716323
  H   7.53803087747839      4.59250845581268      1.17178641917169
  H   6.44070340282337      4.61398080091426      2.56826721233501
  H   5.87803098543617      4.01329853186301      1.00667123042380
