33
Coordinates from ORCA-job 21442opt
  C   2.88753189881507      0.27083987343254      1.36203589344296
  C   2.77293499053561      0.05748674450236     -0.14440524716022
  C   1.31202880789980     -0.02541987927061     -0.56755099261642
  C   3.50033380750600      1.18186237217161     -0.92810772064044
  N   2.97241126011368      2.49173779372926     -0.64905933878565
  C   2.11847432666962      3.08452307172170     -1.45365343729151
  N   1.72976360591842      4.36821506731487     -1.01023042989310
  C   0.68813618147984      5.12019803998895     -1.57426031218246
  C   0.37690572012190      6.39866282915127     -0.90399893987736
  O   -0.17658955134427      6.23991622846252      0.41925967845776
  C   0.15244731896223      4.70913545333424     -2.77520263223029
  C   0.57745922499458      3.51385412116368     -3.35232227719288
  C   1.52067660071489      2.72401468168735     -2.67002464968459
  F   1.85019326431997      1.52811552191775     -3.25461840998525
  C   4.98658153629591      1.10423259249605     -0.56251841667174
  N   5.48634730965217      2.23309140792275     -0.02208662150343
  O   5.65249812916579      0.09398310019990     -0.73760221506525
  H   2.35769346505295     -0.51631238932805      1.90417233651083
  H   2.45366019736757      1.23515882755554      1.63245534928183
  H   3.93074525036191      0.26174222422499      1.68555180360878
  H   3.27987151527224     -0.87525185292400     -0.40683403877952
  H   0.80355676406707      0.91707474899633     -0.35126624759519
  H   0.79891528771462     -0.82483671845008     -0.02626626925973
  H   1.21834597749054     -0.21151763001949     -1.63796172905818
  H   3.47040753029868      0.90409559592610     -1.98478170649843
  H   1.94164665691695      4.51322634226590     -0.03482424657202
  H   -0.31207531717986      6.97200407170285     -1.53147323668566
  H   1.27979618516274      6.99940768639403     -0.73878349719325
  H   -0.77667178482863      5.48727483204090      0.36216599020399
  H   -0.59466482513857      5.32809823493818     -3.25606771631989
  H   0.17553886692695      3.15290024760567     -4.28879321632000
  H   4.84543786276292      3.01358698523200      0.04928996893234
  H   6.46066193593063      2.28189977391283      0.21376252462403
