32
Coordinates from ORCA-job 21447optt
  C   1.07540832914238      1.89265104574259     -1.75761889363143
  C   2.58902902435996      1.95746447125061     -1.65244378711037
  N   3.04642104849532      1.32720794785693     -0.43060453751451
  C   4.48292520637251      1.29671978168455     -0.28887323690163
  C   5.11113971250034      2.48673858290113      0.42673520710684
  C   6.38970062074367      1.88743193032765      1.00810289759294
  N   6.04713728653090      0.49916464471398      1.25429821125154
  C   4.92565298708050      0.10705013855041      0.55249766553494
  N   4.29458197474121     -0.99190576375264      0.50315544753440
  C   6.95305883267461     -0.34549973676172      1.94065926338254
  C   8.16204344799768      0.13528337606749      2.34330246412874
  N   9.01461144230135     -0.68510543384892      3.12412376270870
  C   8.70759235983293     -2.06852910761190      3.26423234154332
  N   9.54593641301980     -2.91447083431239      3.80259561437017
  C   7.42736347285867     -2.39961785703559      2.78340476318460
  F   7.02554458574153     -3.67843440096464      2.95740628089627
  N   6.54311008279570     -1.61461002379867      2.17014254744115
  H   0.72324824246622      2.36243853859501     -2.67742752654097
  H   0.61466011228940      2.39390933678497     -0.90618907020364
  H   0.73904683020387      0.85393769039882     -1.75801445214016
  H   2.91221652415048      3.00346904571316     -1.64358390336148
  H   3.04261571393082      1.49900192352611     -2.54729037983212
  H   2.73030935869977      0.36011153289874     -0.37059552718689
  H   4.97672154461280      1.16919985206003     -1.26948760642002
  H   4.43830103449589      2.79927069839649      1.22685827073683
  H   5.30917868518219      3.33979894528411     -0.22253113893004
  H   6.69308792455839      2.37089509084925      1.93859645788791
  H   7.23149925579297      1.96033788846793      0.30601115521864
  H   4.75098071469779     -1.67917956708134      1.10348328456831
  H   8.49845729841977      1.14685438478547      2.18571445444482
  H   9.99981781386672     -0.54832435894148      2.94412715047792
  H   10.36760211944333     -2.40725976274618      4.12721281976262
