32
Coordinates from ORCA-job 21464optt
  C   2.74119416088733      2.25204868248001      2.51390286850305
  C   2.40009974774770      1.20337826201707      1.46200628992292
  C   3.07084414365039      1.48184222921946      0.10776039838036
  C   4.57356453029011      1.41553193005613      0.12262235023089
  C   5.30941766804763      2.57702742386151      0.11977446889287
  N   6.66524661380502      2.67048087535147      0.15844075442285
  C   7.29762930815131      1.47401745345144      0.19789056082930
  C   6.68613694326044      0.24596813752104      0.17371884724993
  C   5.25695018497861      0.15646512613818      0.10467280373452
  C   4.60911404640286     -1.12852294578830      0.53234223940060
  N   5.38732806511110     -2.33145105157494      0.18443925620567
  C   6.73993892597217     -2.18487404406964      0.70446452996975
  C   7.49998323026637     -1.01789301116967      0.06771653141291
  C   7.47433005991864     -3.49589357695612      0.54789967355491
  F   7.59439459277834     -3.86958589810837     -0.73938908311643
  F   8.72623023291805     -3.41989368027856      1.04101955428890
  F   6.87731507566931     -4.51043524763478      1.18828398560893
  H   2.25360105961049      2.03596751750293      3.46736671861636
  H   2.42374621942681      3.24545499593660      2.18605829489633
  H   3.81914912115648      2.29260769948671      2.67431617632170
  H   1.31449140829091      1.16558737597203      1.32071512820682
  H   2.70075738781206      0.21787600666026      1.82572376910259
  H   2.76454038411462      2.47923934357870     -0.22628631063003
  H   2.68151583292590      0.76853653374346     -0.63014010656882
  H   4.77522093258858      3.52586151555986      0.07456737355112
  H   8.38696930752938      1.51358348109926      0.21988843564829
  H   3.60502833500961     -1.24075493698663      0.11982944639457
  H   4.49669884198098     -1.17943516843833      1.63562246841563
  H   5.45402350575395     -2.35537931206225     -0.83246773736820
  H   6.65981808284721     -2.02089545379438      1.78472493441184
  H   7.65734588795276     -1.27371002477381     -0.99031368276000
  H   8.48137616314480     -0.88675023800036      0.52882906226986
