32
Coordinates from ORCA-job 21470opt
  C   3.97829734771130     -0.93943148402295      2.44393196540548
  C   3.88152176099276      0.15708396837822      1.41226259859556
  O   3.42691101748871      1.24835839439745      1.68056825368816
  C   4.25997324382853     -0.21393464886194     -0.00521497005098
  N   5.28222863789436     -1.23716554777373     -0.06478446810062
  C   5.46871238727940     -1.83702123771621     -1.34966859580615
  C   5.84207171651936     -1.04725977937618     -2.49372875979240
  C   6.30207949457386     -1.68356136363697     -3.62379417059632
  F   6.61253023173407     -0.91322814946732     -4.70458528739382
  C   6.47049922639956     -3.05692004863652     -3.75156764111615
  C   6.17415610699046     -3.81128440131576     -2.58781697215762
  C   5.71648885896007     -3.21347889652585     -1.43771527034520
  C   5.54342964134839     -4.24713104199468     -0.36077809202206
  N   5.68294856211478     -5.55173489617885     -1.05426103060300
  C   6.31543603329902     -5.29040943591834     -2.37132274167631
  C   7.76903064477233     -5.75214980582887     -2.30597709645523
  O   7.84861344737802     -7.10947092169758     -1.91091279597579
  H   3.48492094768206     -0.62203539885275      3.36042722114140
  H   5.02442814094668     -1.18024693122668      2.63381140697065
  H   3.53106455260361     -1.85381376306361      2.04225830338702
  H   4.48241268571517      0.70948767100055     -0.55308253212870
  H   3.35165766375543     -0.64729516264369     -0.45436573553856
  H   6.16634781763848     -0.81129207962431      0.25586263862899
  H   5.70263526638192      0.02561009393784     -2.51277353041501
  H   6.85073943194076     -3.48596613201485     -4.66777760009585
  H   4.56923141803855     -4.17233471683698      0.13455236054621
  H   6.30363597393411     -4.14380165634803      0.41886885448486
  H   4.75289098968379     -5.91236090960407     -1.22212193854378
  H   5.81252165927174     -5.89325650326634     -3.13898709292484
  H   8.30820608034522     -5.10828065957350     -1.60017054336016
  H   8.24438136011753     -5.65878119773174     -3.28386634986028
  H   7.21399765265925     -7.17489335797544     -1.18227038788939
