26
Coordinates from ORCA-job 21486optt
  C   3.59254609797799      0.25764023413043     -1.10761962296632
  C   2.59002733377892      0.11079136367057      0.03913410360833
  C   2.86771586776054     -1.10515277886718      0.87038124760525
  C   3.44051850428105     -1.01040026385314      2.09712024775908
  N   3.72405596069413     -2.12273721447680      2.81677215023737
  N   4.33925188043107     -2.15708559633973      4.05449634729012
  C   4.43324686566445     -3.44289679224342      4.32573435926867
  N   4.98681732918805     -3.99950248984703      5.40453297172067
  C   4.96456380237561     -5.33466092262433      5.40819363518727
  F   5.56545085111336     -5.89351702813718      6.48468211807319
  C   4.42434045460861     -6.17728479101067      4.46788471395867
  C   3.83164610959880     -5.61083620726854      3.33452032644487
  N   3.87303680227789     -4.21168323376893      3.28939502996880
  C   3.43855694588891     -3.35949219436383      2.32846856798641
  C   2.84705466476729     -3.55267819734889      1.10096820851094
  C   2.53149786044829     -2.41778396187439      0.28868171485783
  O   2.00899706262369     -2.49467426696622     -0.83911798533888
  H   3.35149886236428      1.11661926511775     -1.73799533459988
  H   3.57251563395517     -0.64209950156840     -1.72236629762005
  H   4.60353670282259      0.39050628660396     -0.71703753100329
  H   1.58842875291550      0.01287473634654     -0.38590308005522
  H   2.60601380763291      1.00422892154289      0.66930472177521
  H   3.71005741804051     -0.07808349853501      2.57541500985884
  H   4.46228324661319     -7.24614189386519      4.60905964077842
  H   3.33028820347095     -6.12545267676548      2.53483608667657
  H   2.63605297870617     -4.54749729768773      0.73745865001710
