29
Coordinates from ORCA-job 21488optt
  C   0.80134857070943      0.31471969319271      0.85680798742182
  C   2.28084075518879      0.49915218232238      1.11311006577199
  O   2.85243479739265     -0.77732576858194      1.25010884721690
  C   4.20879594354188     -0.85739861988961      1.48399152914265
  C   5.02014346776889      0.27596000396795      1.58403338180431
  C   6.37911971117928      0.13371587100194      1.81869521928724
  C   6.96465677392470     -1.12923219785809      1.95667466026868
  C   8.37925940129927     -1.32570937240274      2.20198236494503
  C   9.33572355633158     -0.27111307930313      2.33071224923072
  O   9.14348806202034      0.95304139376852      2.26530095357280
  N   8.90285586944783     -2.58602199861680      2.33007784753481
  C   8.08987658059282     -3.58438441184792      2.22567288488190
  F   8.65932893527831     -4.81198284601235      2.36426672477032
  C   6.72564837466662     -3.55902022789652      1.99487112188988
  C   6.12533085923701     -2.28093534419791      1.85323038678190
  C   4.73902596458526     -2.13375907485764      1.61586655860138
  C   3.87024662634652     -3.35407693057919      1.51066833285533
  H   0.31406942632829      1.28380742073915      0.74023542512966
  H   0.33484941482821     -0.21352960242484      1.68845176628995
  H   0.64468697777974     -0.26763665741725     -0.05120538806279
  H   2.44597366333366      1.08635020567566      2.02384520762684
  H   2.75290531047441      1.03664777973852      0.28273156948437
  H   4.60734479909693      1.26866947209537      1.47987777664299
  H   7.01425107262860      1.00354029307219      1.89503461761809
  H   10.35473581624965     -0.66087710798521      2.50912986504556
  H   6.16851624714853     -4.48038831209052      1.93252150326455
  H   3.90986175866075     -3.94186480047303      2.43294865672019
  H   4.21480151494250     -4.00959837321832      0.70502401551322
  H   2.83487974901749     -3.08574958992136      1.31733386874969
