32
Coordinates from ORCA-job 21482optt
  C   1.00585461712120     -0.14910073545670     -0.08384604495479
  C   2.53511338523071     -0.10077931555154     -0.06059368614273
  C   3.08532934166197     -1.50794845160152     -0.33005056944249
  C   4.51761623495249     -1.78697459780246      0.11448430675081
  O   4.78857706346643     -3.19117590478914      0.08620539851250
  C   3.07990801526115      0.94952142053826     -1.04934663733521
  C   2.46058299215610      2.33389249994391     -0.81772297717061
  C   4.57641050285956      1.05508462385160     -0.97487457707616
  C   5.47727253638301      0.92247698931287     -2.03057731464996
  C   6.75965623650377      1.10575776995774     -1.45000811122129
  N   7.95934756396228      1.08614025601777     -2.05442604172023
  O   9.04157703364827      1.30657991939396     -1.16366604817606
  C   8.84284033147942      1.55050357738399      0.15655864181104
  C   7.63085068580478      1.57429783096839      0.73464235862130
  F   7.53690124484663      1.82885041173797      2.05578392132113
  C   6.48834455340158      1.33539379555638     -0.06393245897035
  N   5.17243104733703      1.30870656264594      0.21781228839718
  H   0.63122180452941     -0.93088495359901      0.58069867199590
  H   0.64463783828507     -0.36928526626899     -1.09399987474376
  H   0.56162040218327      0.79416498785502      0.23266758096420
  H   2.86415567803907      0.20904261024196      0.93737464586838
  H   2.98521442363244     -1.74847951283996     -1.39478320607993
  H   2.44661527288769     -2.22321744004312      0.20639677020784
  H   4.68429220410969     -1.37908615289569      1.11613492445865
  H   5.24701802898424     -1.32757055627317     -0.54852069210777
  H   4.15135575491774     -3.62600565582152      0.65932178577304
  H   2.81787734895123      0.61720352407069     -2.06208404815396
  H   2.61903280302934      2.63649979323601      0.21968695701317
  H   1.39100059779525      2.35744495304265     -1.03724652132731
  H   2.95639343362683      3.06712519007983     -1.45462560795745
  H   5.25143472880884      0.71550053314684     -3.06517907187647
  H   9.76451629414345      1.72032129396106      0.69371523741140
