31
Coordinates from ORCA-job 21494optt
  C   1.19558029203653      0.05654995268316      0.69502430052677
  C   2.61858030057382     -0.07774010670940      0.15008897034098
  N   3.62342753777446      0.36292500433637      1.10791898503410
  C   3.61227385085722      1.74937571937933      1.39902743950934
  N   3.42313288692000      2.58599403515580      0.33991040073359
  C   3.42993342810807      3.91179912697351      0.55637009785467
  O   3.23042634690217      4.77556624223191     -0.30382700013749
  N   3.70908018767708      4.37676858123231      1.86391786006779
  C   3.74311954447427      3.54987103254528      2.99986115155880
  C   4.20765518687008      4.14524028424894      4.27884155069743
  C   3.75196938172764      2.19809025996106      2.69135132512383
  F   3.88971632328771      1.29202595937666      3.71024110251537
  C   2.92008336373228     -1.51286992751126     -0.26762169731663
  C   1.99169487026207     -2.03883872958555     -1.34294382022877
  O   4.25462580389797     -1.55067190699988     -0.81320041121073
  C   5.24244157080895     -1.90938950239842     -0.00471817563049
  O   5.14322192801088     -2.41403518879935      1.07759894186817
  H   1.07775454456964      1.06297922292316      1.09738216021143
  H   1.02166307174183     -0.66353819035965      1.50146140564649
  H   0.43811845397913     -0.09272259208726     -0.07638758192224
  H   2.72911834119392      0.57091302436393     -0.72071368681866
  H   3.60322179087688     -0.18389025533254      1.96202196102145
  H   3.50903749828842      5.35719195587623      1.98209785907852
  H   5.24071822037077      4.52607248346177      4.20501132395621
  H   4.17652521121897      3.40173265524135      5.07389819867586
  H   3.58205131842189      4.99200517449604      4.58440456740102
  H   2.89731607736294     -2.16534341022933      0.60886367686713
  H   1.97942605474321     -1.36051217458858     -2.19787896048425
  H   0.97769342950528     -2.12973799225476     -0.95578115592535
  H   2.32303698042424     -3.02120304244755     -1.67975775251967
  H   6.20235620338154     -1.71260769518332     -0.49846303649476
