31
Coordinates from ORCA-job 21503opt
  C   0.80285110539175      2.11174889139454     -0.01532146107820
  C   2.18158060176044      2.59533590903879      0.40849809017650
  C   2.12194816737322      3.33332692526383      1.74122421093339
  N   3.06793459256324      1.44664635093102      0.51285213771545
  C   4.43882094295291      1.66154844263469      0.37523182581520
  N   4.94563609133749      2.87369268224420      0.36011093718776
  N   6.26549927195020      2.68822660058279      0.08088703371307
  C   6.59985165553974      1.35610521295357      0.01301717368523
  C   8.00057230807910      0.91934110450708     -0.22494742791644
  C   5.42322949549671      0.62717572282097      0.16801250820196
  C   5.26223714927558     -0.80413188654510      0.06805453390185
  O   6.18901190098956     -1.55465870783580     -0.39120935574243
  C   4.15832855355898     -1.48620943887403      0.86297687046749
  C   3.11311835901730     -2.21075835692403      0.05655358170875
  F   3.60012401535398     -3.00822072724184     -0.89225226148595
  F   2.32718330923394     -2.99471725763288      0.84350709389279
  F   2.24927867626808     -1.36552358929917     -0.56040776024447
  H   0.10250548904638      2.94696586225639     -0.06581297925433
  H   0.42191616453445      1.38381463389230      0.70509819772867
  H   0.83962560213836      1.63238592368006     -0.99564477570960
  H   2.56999578420357      3.29107101130263     -0.34675417366567
  H   1.69668555734923      2.67827148938882      2.50523957598511
  H   1.50178029384894      4.22957353219860      1.65982772026325
  H   3.12502356367227      3.62696313412720      2.04627285992885
  H   2.77437873014305      0.65851695991049     -0.05114082109287
  H   6.90137032174207      3.42143018174962      0.34194334756952
  H   8.65491121258939      1.16213829487146      0.62139576873483
  H   8.42596820064459      1.39825518328491     -1.11469479129521
  H   7.99456426385777     -0.15942634707275     -0.37223325692203
  H   3.61296015542058     -0.80168164016596      1.51599971673429
  H   4.62910846466603     -2.26020609744272      1.48271588006314
