28
Coordinates from ORCA-job 21502optt
  C   1.12868428503303      0.06041659440374      0.03346506628371
  C   2.59916388364156      0.00064845993584     -0.21257782471068
  C   3.49591740630411      1.07266271565139     -0.10058373319071
  C   4.78836985389691      0.55247701364656     -0.07660629507447
  C   4.81652206479919     -0.83719841395268     -0.13918590930089
  C   6.03066107634215     -1.55751161002808     -0.10900711040706
  C   7.22717760223522     -0.69507947611763     -0.05874563154377
  C   7.07195690409521      0.62630545624624     -0.03961532915959
  F   8.10168456188399      1.47414165295860      0.00194473939316
  O   5.94479838260809      1.32371228169285     -0.05770997253025
  N   6.07530366939418     -2.86251267300632     -0.11235537022565
  O   7.43379719030942     -3.31773459252869     -0.06664609276440
  C   3.38010380109637     -1.31536489042614     -0.14794339379302
  C   3.06559652207798     -2.11246785560772      1.13097384628144
  C   3.05471916791108     -2.20820500263804     -1.36014448202018
  O   3.14447263701059     -1.51035768346089     -2.58712058567637
  H   0.73879830737523      1.05307623451461     -0.20546828490682
  H   0.85572300382927     -0.14586960400487      1.08268653957109
  H   0.57745291298957     -0.66294337032742     -0.57741016248023
  H   3.24540720934180      2.12396418026198     -0.06213877892928
  H   8.22072314818984     -1.10965811403466     -0.04052214519967
  H   7.31608655464452     -4.26306587701339     -0.16904818914450
  H   3.26643084421882     -1.49270086523744      2.00685648829255
  H   3.69897205421559     -3.00086213268455      1.17921143503106
  H   2.01541592710488     -2.41890669666027      1.15383118662582
  H   2.03673983245869     -2.60714731451121     -1.23358000138812
  H   3.75463671730093     -3.04503182407850     -1.39410484486129
  H   2.96868447969168     -0.58278659299329     -2.36145516417189
