28
Coordinates from ORCA-job 21501optt
  C   1.06772313038501     -0.59550906411927     -0.10950829120146
  C   2.53066773436588     -0.15790540331013      0.00668662695255
  C   2.92262483248607      0.80108553329335     -1.07047134577525
  C   3.53764659291541      0.48264398203653     -2.27372561443677
  O   3.67536096787906      1.62334585206415     -3.06089036107414
  C   3.14743542622666      2.65827193522206     -2.36317101006849
  C   2.66602159448066      2.19313167399511     -1.11953490004898
  C   2.09200613116887      3.16066999982813     -0.28687222482440
  F   1.60914205946660      2.77830841644471      0.92792388734351
  C   2.00362818439009      4.48456709249514     -0.66425319365599
  C   2.49227051151694      4.89560865300307     -1.90507924432604
  C   3.08035502941309      3.96806904345354     -2.78165733599795
  C   3.98512960723996     -0.81253651465196     -2.84272143232600
  C   3.24841636243772     -0.99606075000208     -4.15383928446524
  O   3.75190411664525     -0.81853212355548     -5.24968738154176
  C   5.48636844843637     -0.74725012779914     -2.90076524245659
  O   6.21271512233436     -1.45208168751721     -2.21941109428594
  H   0.79249598979669     -1.29580197701046      0.68306335723648
  H   0.89279443844389     -1.07629732767221     -1.07414344625506
  H   0.41149655710554      0.27393980286590     -0.04523984735751
  H   3.18166885215149     -1.03502492495650     -0.03001383154373
  H   2.68851876398362      0.30443434853582      0.98350265040479
  H   1.55105226255673      5.19124481190574      0.01989134940978
  H   2.41704406049760      5.93603142847945     -2.19044634090127
  H   3.46496420082323      4.25894883706787     -3.74943467009988
  H   3.69053592893915     -1.59461152561737     -2.14015330126255
  H   2.15389342142711     -1.12026526129806     -4.03114552583986
  H   5.89311967248685      0.04957527681928     -3.54290295160221
