30
Coordinates from ORCA-job 21518optt
  C   1.18254408862283     -0.22403073975728     -0.07208824566999
  C   2.68268145674355     -0.13170896246473      0.09816641191069
  O   3.02204168185982      0.90282737500804      0.97319120398074
  C   4.49209000368101      0.70311846308380      1.27360257011531
  C   4.56248487844921     -0.82775126026082      1.46145924768415
  C   3.30307216199516     -1.37458206978623      0.76736463721529
  N   3.54215315447493     -2.46832736110493     -0.19012273510739
  C   4.45894083324991     -2.31002689034381     -1.18750114789002
  C   4.65776625688633     -3.27055822172205     -2.12966753864826
  C   3.90907831626345     -4.49576101473719     -2.14659823971084
  O   4.01821482184564     -5.40104869579778     -2.98707836208514
  C   2.94163538863793     -4.62391804109180     -1.06517696574532
  N   2.22176293445959     -5.81809749624877     -0.98789500913719
  C   2.81709614179826     -3.61891591803351     -0.17071760272316
  F   1.91598910133029     -3.72812830177320      0.81782705415330
  C   5.40583791828219      1.17621901914587      0.21570800695212
  O   5.67881401086142      0.44978910981303     -0.81421660174014
  H   0.79668315901312      0.67868494772701     -0.54603919479376
  H   0.70313465413893     -0.33635547431460      0.90277021990067
  H   0.92101739992579     -1.08291846251219     -0.69608847380157
  H   3.17275169970563      0.01423309815154     -0.87484072644976
  H   4.61731993425560      1.26590572831165      2.19870989680298
  H   4.55455160276621     -1.09660787488188      2.51732677266540
  H   5.46889738066992     -1.21490865590812      1.00096428041358
  H   2.59989865844514     -1.75119572066314      1.50520448004659
  H   4.99716649202005     -1.35779744049483     -1.16180192805055
  H   5.39098185013193     -3.10561802989987     -2.90603070833231
  H   2.32011962739747     -6.30625604307066     -1.87194868587097
  H   1.25908465244856     -5.70959960875062     -0.70562162621171
  H   5.68018973964007      2.23933454237708      0.24113901012727
