24
Coordinates from ORCA-job 21516optt
  C   1.75622840387237     -1.11994724288148     -0.52937377309971
  C   2.37873905328233      0.04413298384020      0.22990530037102
  O   2.22976079861025      1.17553296054693     -0.20932618085590
  C   3.12366586858850     -0.28224063280281      1.43855759330415
  C   3.76192826045738      0.67100754881137      2.22411815601249
  F   3.64319413411031      1.95053172566573      1.85626077140273
  C   4.52983625988952      0.45790685367085      3.36601574624007
  C   5.12186055342487      1.57353254647762      4.01474996676858
  N   5.62535003308967      2.44885293547164      4.57315823411133
  C   4.72679011561348     -0.85684943140080      3.88461949625822
  C   4.15622140538401     -2.01272897812433      3.27572425981663
  S   3.19739011714146     -1.99628015356922      1.84996405334101
  N   4.44129799066124     -3.14801097675092      3.92429522838604
  C   5.19655589649968     -2.74238939184127      4.96951471038889
  N   5.72569464777924     -3.64986261741895      5.87499890210768
  C   5.41049368856984     -1.35725564469523      5.00275815498508
  N   6.14788079815999     -0.69514274270794      6.03040610892484
  H   1.23726684793045     -0.71428547299436     -1.39390126334253
  H   1.05560455231107     -1.67251459264501      0.10031683086275
  H   2.52169545144834     -1.82780156445143     -0.85480708497972
  H   5.15569859372785     -4.47571843136473      5.98159177351360
  H   5.96811748834546     -3.21083505123462      6.75275919520768
  H   5.66874862486583      0.14292570163927      6.33873776129525
  H   7.05498041623655     -0.38956033124044      5.69495605897963
