33
Coordinates from ORCA-job 21519opt
  C   3.26012036035565     -0.24900807726534      1.64319756790815
  C   2.52330338018401      0.02426393664432      0.33381916564588
  C   1.03591592194528     -0.29442748519068      0.56410844787859
  N   2.70258804098751      1.44894979133214      0.00035542008417
  C   3.06654906804280     -0.88708002588520     -0.80570516772194
  C   2.50943598937815     -0.50965866643355     -2.20373592240634
  C   3.37933294682937      0.49013801871794     -2.98074216338358
  C   2.69355465324848      0.97980137840250     -4.17385381776181
  C   2.10109187125131      1.37217948882000     -5.14129762387864
  C   4.56241574069597     -1.08841283176577     -0.85142105602453
  C   5.50908154915545     -0.11192559456719     -0.67029037684791
  C   6.88779646579526     -0.30708306870469     -0.79531063774376
  C   7.47174215543463     -1.53647473784154     -1.13203313960308
  F   8.83978193092335     -1.55194270036172     -1.17661818245653
  C   6.85131628514026     -2.74633473121381     -1.43392756207608
  O   7.34261615550799     -3.83429382765799     -1.73681070986486
  S   5.00911620190818     -2.71099571409011     -1.37588455475676
  H   2.75709655626819      0.26749040680149      2.46690234126893
  H   4.29417124125045      0.08089461936730      1.59326597872141
  H   3.25912164891837     -1.31915891346582      1.85795711592004
  H   0.64013057080787      0.35085588624381      1.35284256112123
  H   0.89940034518766     -1.33289172700497      0.87376567611974
  H   0.44024559445294     -0.12686712179580     -0.33426866939417
  H   2.40547219946728      2.01449063212570      0.78999735450141
  H   2.09760250839892      1.70217554605333     -0.77554146228746
  H   2.63497929945056     -1.86887813234793     -0.57594241129553
  H   1.49094133058837     -0.11826636722344     -2.13125895791220
  H   2.44262816706611     -1.41916551223793     -2.80404591902593
  H   4.31580979643995      0.00634789485179     -3.26446289254508
  H   3.65913814452256      1.33495246025677     -2.34851047197089
  H   1.58746828968289      1.71726886059598     -6.00514996427586
  H   5.15713077556365      0.87856260582942     -0.40225469581751
  H   7.56490481515044      0.51749370901103     -0.61414527011907
