25
Coordinates from ORCA-job 21511opt
  C   1.06116762701774      0.09915098801695     -0.26013951935113
  C   2.53864292453565      0.15852407959167     -0.01743058957688
  C   3.29151740969001      1.31820404446922      0.07351055379820
  Br  2.37094213177186      3.01508456844815      0.01673250607139
  C   4.67968565551070      1.33283859030867      0.17135245893542
  C   5.54524079862704      2.54680614703656      0.24235279072485
  C   6.08833673400281      2.89060808748583      1.61208862063411
  F   6.72923544074775      1.88193770115141      2.21254185632374
  F   6.98471697076405      3.90613698201233      1.52209255804987
  F   5.14363826883258      3.31179576951660      2.46728241545457
  N   5.38844947611943      0.13634439939519      0.11356850747597
  C   4.68101441463528     -0.97251597317872      0.05512201962886
  O   5.42490406448718     -2.12654167625972      0.04935970010099
  C   3.30401381732445     -1.07598353932636      0.00181036114586
  C   2.64381714342956     -2.42370826957432      0.04332410148369
  C   1.90734796175687     -2.78354759426322     -1.18085218691078
  N   1.32579806698845     -3.07106040509324     -2.12830856170224
  H   0.82659912337465     -0.08787676799994     -1.31622711342128
  H   0.56639497354529      1.02204585756561      0.03314728969049
  H   0.60008961388903     -0.71745916516738      0.30228209709916
  H   5.03499034757278      3.44466577737202     -0.10527458157275
  H   6.42910557452165      2.38200490641663     -0.38241202556353
  H   6.33443491725028     -1.81012253858720      0.12315082994974
  H   1.92828265012787     -2.51268345500437      0.87106415190970
  H   3.40563389347657     -3.18864851433242      0.19386175962195
