27
Coordinates from ORCA-job 21527optt
  C   1.05553094792964      0.31042032771609     -0.08133678934972
  C   2.54684747457301      0.15586950675917     -0.02880014523960
  N   3.27249634487348      1.29711690210380     -0.08556941290850
  C   4.61802061401605      1.22671229470420     -0.05853971848188
  C   5.33045057485590     -0.02702927999095      0.01189200210808
  C   4.54558951825521     -1.19760330051100      0.08406404854400
  C   3.15059500552432     -1.07998559449851      0.06272292744841
  O   2.35902964907465     -2.21416315270829      0.13396198989643
  C   6.74055678967091     -0.02505089013879     -0.01824963005728
  C   7.47726891339398     -1.33020858864603     -0.14321019357499
  C   7.67177144464598     -2.06200126744703      1.11703370474873
  N   7.85547137360159     -2.63729599174234      2.09362169757395
  C   7.47001573903869      1.17882732470072     -0.02924394846111
  N   8.89381025584852      1.17099556671403     -0.02566140008300
  C   6.75660519293414      2.35793058871478     -0.07329891393205
  F   7.46320114398664      3.53162662228395     -0.07072670831405
  C   5.37536001378991      2.41643492242535     -0.10799104612621
  H   0.74699959499714      0.69919104337013     -1.05671987846900
  H   0.73148170524697      1.03702310242101      0.66740783455014
  H   0.54764495640151     -0.63639768893294      0.09302845415876
  H   4.99679288042229     -2.17473039151850      0.22147340627845
  H   2.94386637864039     -2.96447276029561      0.26973809495935
  H   8.46861000507638     -1.15739138056702     -0.56766417024694
  H   6.93630581243635     -2.00217470634343     -0.82022712133009
  H   9.25506729950318      0.68418184326555      0.78863254681535
  H   9.24476827007205      2.11938996089380     -0.00516942443982
  H   4.86684210119089      3.36878498726784     -0.16116820606741
