32
Coordinates from ORCA-job 21523opt
  C   2.26766382679182      1.25244899781349     -0.46547362431756
  C   3.46339329979292      0.30715543317578     -0.46552145171610
  C   3.04545005330300     -1.14382209344450     -0.68967238595462
  N   2.53739388720444     -1.31905184950382     -2.06699444533561
  C   3.48344303471591     -1.21868908828209     -3.12810452404560
  C   3.76318465919607      0.01163758593880     -3.77107551619750
  O   3.13717827582517      1.18584499882653     -3.43114581717767
  C   1.82926989714182      1.28164089125586     -3.96566672096489
  C   4.71661651775249     -0.00384995535305     -4.77692097306267
  F   5.06584948296414      1.16503918066917     -5.34572199920217
  N   5.36563161596533     -1.03128958053168     -5.24687375989677
  O   4.94349137261100     -2.26685049412796     -4.71940903462939
  C   4.10148645059711     -2.37635474872419     -3.63087435296963
  O   3.93577348666432     -3.53704245093701     -3.22333482689678
  C   4.13438076187358     -2.16845144309751     -0.32614566762502
  C   4.56205907286211     -2.08181325813965      1.13078401231748
  O   3.65044751106576     -3.48018518857372     -0.53282592803201
  H   2.58127671460628      2.29607372819780     -0.52135341436300
  H   1.67381373476282      1.12070232874484      0.44299652827185
  H   1.62996755606705      1.04156765496745     -1.32212643511101
  H   3.99064418287279      0.39514178934590      0.48572068628418
  H   4.16837253831300      0.59519493014591     -1.24828572450029
  H   2.19210000676583     -1.36569401870078     -0.03497320714642
  H   2.10473337807105     -2.23509727453002     -2.11938213858341
  H   1.39862464593174      2.21065232200440     -3.59059103374272
  H   1.22108552733410      0.43344497465528     -3.64014877159145
  H   1.86525859389036      1.30911704879136     -5.05957090283004
  H   5.00545244770616     -1.98911571425107     -0.97150594727138
  H   3.68525726354070     -2.11895628233252      1.78324959739715
  H   5.12000410622870     -1.17136249420277      1.34498626748027
  H   5.19461321891818     -2.93807054809916      1.36467636866613
  H   3.69908287866395     -3.65496538170099     -1.49871485725318
