27
Coordinates from ORCA-job 21520optt
  C   0.70454060290598      0.29903071440080      0.19763824080362
  C   2.18702478924151      0.03261999356309     -0.06792687681138
  N   2.45461879531531     -1.38167242886941     -0.27078811606924
  C   2.68661395105723     -2.24730133526547      0.74010891937742
  O   2.64727863579687     -3.45594570049604      0.59567715399142
  C   3.01622255711988     -1.64079008613801      2.08281653454111
  N   3.35836741753490     -0.23099377952829      2.07032802641972
  C   3.02478474356242      0.60331721151834      1.05697412459964
  N   3.29346706883406      1.85487702117812      0.97718216413904
  C   3.99392917525005      2.49065915012529      2.03937909815082
  O   4.24482484941831      3.69517601057567      1.96873827002492
  C   4.34029918691576      1.64858925618239      3.11846457053621
  F   4.98703416016262      2.22410046732273      4.16583036108936
  C   4.03864007844022      0.28009189080563      3.21893194242419
  N   4.24923033658203     -0.59576772061167      4.18059775253365
  C   4.88407368996749     -0.36671639698943      5.32569983908517
  N   5.14999889522443     -1.49324417452408      6.15112467457293
  H   0.09561388665705     -0.06671913840845     -0.63162198578592
  H   0.54526692707812      1.36958070337696      0.31862169355837
  H   0.38762281929293     -0.21119217107412      1.10983148909363
  H   2.49569111018712      0.57124323154258     -0.96182314622168
  H   2.16147582124900     -1.81006288241455     -1.13668506878861
  H   3.85668875594243     -2.19603759635291      2.49437352315282
  H   2.17666226329531     -1.83507318102595      2.75958089641009
  H   5.39946762606135      0.54727410959884      5.58465020600619
  H   4.58356678391496     -2.27270612869150      5.83771292362004
  H   4.95199507299258     -1.31433703980055      7.12858278954639
