26
Coordinates from ORCA-job 21533optt
  C   0.74011718664230     -0.32815956610470     -0.09861049708478
  C   2.22357132254579     -0.03097879537398     -0.03475007334640
  O   2.63948739935007      0.31973377974031      1.28765484845393
  C   2.07644022806337      1.48586870144195      1.80343447814374
  C   1.98937690687918      1.59655280428237      3.20247684137061
  C   1.89853228357116      2.87727646260761      3.69891052274608
  F   1.64971180761247      3.08097320668467      5.01084221569251
  C   1.98315574484633      3.98185847772590      2.86807805274740
  F   1.85154774935786      5.24003405179713      3.37321814326331
  C   2.33349493085758      3.86116467224691      1.49869137540509
  N   2.54007264861279      4.78743292976101      0.63587571463041
  O   2.52706952171689      2.57061499043143      1.05127236085663
  C   3.04793844767287     -1.27276088581099     -0.38402276101844
  O   2.65369369003433     -1.79493817369063     -1.62220408478797
  C   4.55804335156655     -1.02122780431273     -0.40723102058553
  O   5.07092180325590     -0.35600872666344      0.60889828084851
  O   5.23220745737644     -1.45892317968318     -1.30647054055023
  H   0.17388536199104      0.56268917639321      0.16752544772309
  H   0.49300103090947     -1.12308216912476      0.60870277356564
  H   0.47483775807490     -0.64875239997498     -1.10471269166882
  H   2.48038882861703      0.78472088520924     -0.71774510608736
  H   1.87229967378880      0.72512350089729      3.82613013071136
  H   2.42875538686271      5.68400439610035      1.10105173751668
  H   2.87272851917053     -2.00772180385675      0.41622270700939
  H   3.47671573780254     -1.97250921567937     -2.10298400099069
  H   4.32700522282106      0.02701468495615      1.13874514543583
