25
Coordinates from ORCA-job 21532optt
  C   1.01455192543646      0.14604824098234     -0.02570748874049
  C   2.54197045127244      0.12112453762598     -0.07209062612137
  C   2.98538846113913     -0.26485029453913     -1.41275250041658
  N   3.27849521452753     -0.56837516631781     -2.48047581713888
  C   3.12550859686517      1.51374289972712      0.33356233869674
  O   2.29770362701445      2.41729981667572      0.46580193377809
  C   4.54090793370723      1.65309813480799      0.51514432972556
  C   5.15465707884927      2.93722838506051      0.72081689695624
  F   4.34073554686556      3.99818509703410      0.73954611469490
  N   6.39579357450526      3.21521160726518      0.87732972460525
  C   7.30369702976799      2.19306954374062      0.85206795419761
  C   8.67390021154978      2.47234069056462      1.02053161437284
  C   9.86275893804726      2.65960918581913      1.16646639899170
  C   6.85551717460990      0.86328822704099      0.67033796785021
  N   7.74699799912741     -0.26464660293241      0.66580412455537
  C   5.51514758344455      0.60141379568911      0.52077657069845
  O   5.13011687817581     -0.69785202256027      0.40996146096148
  H   0.61264323022900     -0.83114826049619     -0.29513248238519
  H   0.62732199717645      0.89924903865646     -0.70774763243179
  H   0.68993501562722      0.41366601636213      0.97795965015598
  H   2.92574398115693     -0.63638474123342      0.60842410812712
  H   10.90060037997849      2.84978006981625      1.28680935084935
  H   8.35618941354764     -0.22044799034795      1.47676635005179
  H   8.36249284017189     -0.21373420666937     -0.14045592440434
  H   5.96422491720705     -1.19791600177172      0.44925558236995
