29
Coordinates from ORCA-job 21547optt
  C   1.31168085570475     -0.17697204703720      0.15998437610410
  C   2.79665032673516     -0.34574814582481     -0.18097822901098
  O   3.04988704929773     -0.07742529453694     -1.56419645097096
  C   2.30033125879748     -0.80541986892953     -2.49376515769295
  C   2.61775535170126     -2.30235208164205     -2.50270247770014
  C   4.04418186467550     -2.50428504061916     -2.79194647156721
  N   5.15118506163243     -2.67507602822338     -3.04613156625420
  C   2.16468908014587     -3.12483146724656     -1.27733479759102
  O   1.27858179016049     -3.99688434624018     -1.50070730353030
  C   2.84751251890308     -2.93157264915732     -0.02820438990968
  C   3.07857963471776     -4.04305904085316      0.84889582225000
  C   2.60623980255719     -5.42642544450378      0.49541084347111
  C   3.83124449382348     -3.87757028216967      1.99260928029981
  C   4.35451728202766     -2.63064628197538      2.31673546241790
  F   5.10744753832020     -2.50946794595893      3.44813954195713
  C   4.10134294841691     -1.52579184987138      1.53940869192309
  C   3.32848196626371     -1.64552928214301      0.38650059069803
  H   0.90729758960595      0.71578713894130     -0.32367307058769
  H   1.21326657183966     -0.06678443248190      1.24011542050717
  H   0.72730060399008     -1.04732269930635     -0.13936079417840
  H   3.34332182314777      0.46085690913936      0.31075466484551
  H   2.54496512833131     -0.37226154984125     -3.46595901850334
  H   1.22290444062277     -0.69475917300792     -2.32809371062258
  H   2.06236303161281     -2.74767891519242     -3.33142699541157
  H   1.51903377253503     -5.48913517022074      0.48120576722793
  H   3.00913369224857     -6.15111366776351      1.20527976665193
  H   2.92917325291951     -5.69274795870500     -0.51275637636610
  H   4.05097165971893     -4.72393200595769      2.63291551334724
  H   4.46595960954687     -0.55685137867141      1.86228106819616
