25
Coordinates from ORCA-job 21542optt
  C   0.98100560000362     -0.33982279134579     -0.10417504763307
  C   2.45892220284251     -0.11322430301802      0.00423684072425
  C   3.07705467938790      1.10483146341838      0.13993314274704
  C   2.36231921736221      2.40355025001047      0.31440373170795
  O   2.59468949657041      3.34723565239116     -0.75186744144396
  C   3.82136277390434      3.86934294157136     -0.90934889509870
  N   4.95765799181312      3.54616546609763     -0.48256436365811
  C   5.30100475587895      2.38774575062364      0.32052617018842
  C   6.74225946077345      2.09222875856201     -0.11283360477358
  O   7.71672373677452      2.26948033050036      0.56084313105777
  C   5.23004664020199      2.63118756187108      1.81308064761905
  O   4.51656850198340      3.45163785038924      2.36025875095772
  C   4.49527583909198      1.12791899904505      0.16482106149373
  N   5.21563067744363     -0.04712312352623      0.09918204946918
  C   4.48638650486185     -1.11832447020695      0.01789452114540
  F   5.18532048670786     -2.27102956672557     -0.01627705121934
  N   3.18572079108075     -1.28676288933595     -0.04617911487362
  H   0.63735699380044     -0.94572766918207      0.73869638154797
  H   0.77879924545976     -0.91972031716624     -1.00793740477406
  H   0.39615852313623      0.57575289303204     -0.14038172994758
  H   2.67238788412416      2.88650543620944      1.24256349665509
  H   1.28476433576966      2.27981793143677      0.32469378135954
  H   3.74895568967512      4.74001405171826     -1.55982361056888
  H   6.81166663934889      1.75948435795521     -1.16372568591205
  H   5.82896133200306      1.90583543567463      2.38598024322982
