25
Coordinates from ORCA-job 21549optt
  C   0.84510778952061      0.04591231596667     -0.35826516921989
  C   2.34825994408094      0.06324935202823     -0.39621015476531
  C   3.11084851942466      1.12149632041251     -0.09498342231630
  C   2.47174404974447      2.36437255075424      0.48486111266474
  C   4.58586322122074      1.08743437736653     -0.22986627796119
  C   5.30393319271932      2.22693007402418     -0.40993310236929
  F   4.67381039070571      3.39703866010819     -0.62997008322972
  C   6.75819992693442      2.29319504454681     -0.37744449806650
  O   7.35336264835738      3.35299326247721     -0.57026352332887
  N   7.40393590017540      1.12036404300995     -0.10216454659972
  C   6.74664339130216     -0.00977779071859      0.02728706353642
  N   7.53758214013953     -1.09849402855878      0.31663960950051
  C   5.31945777350824     -0.14545361305264     -0.09539309970244
  C   4.63166044782566     -1.37890866216439     -0.15069657080336
  S   3.02399843826821     -1.48283341885450     -0.86804529149989
  C   5.13577692290747     -2.63955353512926      0.17878110459196
  N   5.53341360745294     -3.70337591040879      0.42232651159253
  H   0.42699336980615      1.03265816475863     -0.55064856709961
  H   0.48291918927527     -0.30714810873013      0.61115595160000
  H   0.45850121220481     -0.63908957064528     -1.11528935808422
  H   1.55428702281142      2.11546378312872      1.01643605657463
  H   2.24160011121835      3.10676778322362     -0.28154638999801
  H   3.15285879146945      2.83980667664082      1.18890494886537
  H   8.51488260019242     -0.92223619085002      0.15240093240004
  H   7.21135939873414     -2.03481157933393      0.15392676371813
