35
Coordinates from ORCA-job 21541opt
  C   1.13502203544637      0.97489579737694      1.01096745806876
  C   2.22443499941979      0.17813749574787      0.28340941996833
  C   3.23230367194020      1.13343731963147     -0.37246519380295
  O   4.31100752696294      0.43378512156976     -0.96521102683486
  C   2.87780761831584     -0.87330820646003      1.15707525323217
  C   2.63164891792540     -2.21579299905750      0.89096745772645
  F   1.95873088740918     -2.51975460507899     -0.26572121733596
  C   2.98034837982437     -3.30681265101981      1.67852443877730
  C   2.88413460565148     -4.72561089365692      1.20879517066288
  C   3.69275635910087     -2.95551897475365      2.86578892103771
  C   4.15439782918621     -3.85623333644157      3.96365873601556
  O   4.81642941089401     -3.00480565869540      4.89827792843653
  C   4.65586188922195     -1.63799054443422      4.52190613592802
  C   3.95137220102067     -1.65485630735160      3.19422429559572
  C   3.55533312425702     -0.55088601563769      2.41593526437961
  C   4.16217838760818      0.78661543106890      2.72066434173985
  N   5.48181439714646      1.08629603382901      2.09574456320013
  H   0.72100745813095      1.75561785267793      0.36450635185923
  H   1.52246528728924      1.44575080468580      1.91464650551968
  H   0.32441562459549      0.30970229279660      1.31036933627789
  H   1.74619541425991     -0.34905713688746     -0.54322115883634
  H   3.60992886566788      1.86520451818805      0.35102663077274
  H   2.72880462651557      1.69616062075461     -1.16489550276129
  H   4.34738178836707     -0.42358967071051     -0.50650604505917
  H   3.84071591522491     -5.09981133242664      0.80806664912165
  H   2.13790851478526     -4.83703364762838      0.42323235673836
  H   2.60801820446787     -5.39535931055879      2.02872960900012
  H   4.85857748765677     -4.63122798541486      3.63513507908928
  H   3.31938148389271     -4.36867262731516      4.46974340212563
  H   5.64567072950802     -1.16627967146270      4.48263671769462
  H   4.07131246371590     -1.11175928069079      5.28975622961395
  H   4.31482841276853      0.86836957878419      3.80104230959789
  H   3.50747355350020      1.61712139518658      2.45020588697291
  H   6.11991224228926      0.34049224471736      2.35897040701365
  H   5.39241968603336      1.00177434866768      1.08601328846386
