34
Coordinates from ORCA-job 21540optt
  C   1.15432176765706     -0.31697906581169      0.03048752373923
  C   2.66177276667006     -0.08797463269364      0.06224865038699
  C   3.08481723697314      1.37997360389799     -0.06931318372264
  C   2.46197212942689      2.23199011018606      1.04214313704187
  C   2.98720199057330      3.64920481965029      1.03127215417634
  O   2.27623369914174      4.40390716470226      2.01032793571811
  C   2.88173399216344      5.61565275381508      2.36099583320252
  C   2.78086836340735      6.69568943402312      1.29514567002450
  C   2.22686631663321      6.04064008076804      3.65924639801633
  O   2.23525328509544      7.15972809968056      4.09289664607969
  C   4.59479247122582      1.48674704116951     -0.04747487465052
  C   5.28289734653037      1.88087274376504     -1.16680767648169
  N   6.66186644325126      1.98044855298893     -1.22630799312816
  C   7.20749530449782      1.66502198663388     -0.06401304711440
  F   8.56935312636550      1.73133241541734     -0.03614388462152
  C   6.56650652315411      1.28387374217734      1.08217071945782
  N   5.18798483904189      1.17331764667246      1.13194470811706
  H   0.91756052223579     -1.38298435546722      0.02009037202591
  H   0.70765844891153      0.13195742216172     -0.86143148931541
  H   0.66285546506821      0.11958398279715      0.90140765893407
  H   3.13659288291550     -0.64456326102561     -0.74997560491115
  H   3.08724623750954     -0.47120226394493      0.99308463826248
  H   2.73256953440728      1.75714171261990     -1.03814326218386
  H   2.70431457428224      1.78074755262743      2.00748049476705
  H   1.37385787456916      2.26438519180535      0.94078949884513
  H   2.85709155399630      4.10200101811415      0.04082003345920
  H   4.05644028604486      3.65076444313540      1.26878874338197
  H   3.94412335087283      5.44274120928735      2.60335405804685
  H   1.73889855764950      6.81967078122985      0.99648933696382
  H   3.37116043004578      6.42882914306115      0.41979406988678
  H   3.14621778101428      7.64033954560481      1.69689792460111
  H   1.73464074086821      5.21066917862390      4.20121018985980
  H   4.74192224333795      2.12579788107082     -2.07586135853488
  H   7.13591191446257      1.05167432125614      1.97338597966956
