30
Coordinates from ORCA-job 21555opt
  C   1.04893013008293      0.00579611816099      0.71988794622804
  C   2.46302242991759     -0.05306295185138      0.24103516559172
  N   3.27123648972009      0.97805889419993      0.43043029021091
  N   4.45314799450210      0.61238179118071     -0.10317246828523
  C   4.41103794473673     -0.63518895184616     -0.61394672621644
  C   3.13198011987118     -1.10521218571773     -0.41735082930588
  C   5.57612276383912      1.46960887450720     -0.09864964527556
  C   5.43907218045801      2.78653399472808     -0.32603794680668
  F   4.27676495711292      3.35649353736412     -0.66020204309053
  N   6.44974080975634      3.67472780814773     -0.21464127993601
  C   7.78902746147254      3.21254576064351     -0.09077535825210
  C   8.72777261455804      4.31017698391424      0.24589215861180
  N   8.66530967200202      5.37797265488570     -0.77833649703886
  C   7.98761377452625      1.84933445003810      0.20363447968502
  C   9.37617403397129      1.33186405244592      0.43633461752897
  C   6.93535715646609      0.90929099433578      0.18386403313890
  O   7.05950833758933     -0.33430344088312      0.34435642647881
  H   0.86719393523736      0.97310713748741      1.18632125335821
  H   0.84529891002465     -0.77652502220967      1.45419031235604
  H   0.34201268544819     -0.12068435130651     -0.10298738504586
  H   5.30223076769395     -1.07422086977891     -1.02550803426355
  H   2.74284998744302     -2.07099538725254     -0.69251292126545
  H   6.33286175326910      4.56496512179114     -0.67629959270111
  H   9.73081789228479      3.89648785744024      0.37504387632495
  H   8.44180540540817      4.80340561202325      1.19566553199018
  H   8.99652071772579      4.99068211864921     -1.65851929882223
  H   9.27702377044067      6.14747196216264     -0.52289645066186
  H   9.81347449935548      1.70023902953030      1.37052185047763
  H   10.05245214129048      1.63049835765852     -0.37573742919813
  H   9.33763866379522      0.24455004955112      0.48239596418431
