31
Coordinates from ORCA-job 21568optt
  C   2.54665651307580      1.67214781469591     -0.48395160337690
  C   2.67701230652728      0.19730330082303     -0.11973112262519
  C   2.97172808059008     -0.70373915368375     -1.31848647382007
  C   4.24356078373304     -0.29329420468053     -2.06086171554746
  C   4.63353498459843     -1.25761193894821     -3.12882030402861
  C   4.35098764757318     -2.63245832635501     -3.04455481701696
  C   3.24457704772725     -3.08793396496314     -2.13871383974459
  C   3.11375871434722     -2.18154075409545     -0.90144969177357
  C   2.00911820048176     -2.64735333683108     -0.06304674426930
  C   1.09709737697059     -3.05992536817743      0.59966902367201
  C   4.98037484579135     -3.49789332914801     -3.92665952506324
  O   4.65619291631282     -4.83421655007849     -4.02731381899888
  C   5.91487260793413     -3.02236735010036     -4.85945719041439
  F   6.48107887981777     -3.90890321835964     -5.72041301584001
  C   6.34482676353058     -1.68321989797275     -4.89119524156180
  O   7.17554867119939     -1.17784923353128     -5.66050628699873
  N   5.75086457071548     -0.87825245879764     -3.90161736307327
  H   2.22197968881747      2.26131877677236      0.37567484789718
  H   1.81213096562757      1.80900917796095     -1.28159167636073
  H   3.49414095002206      2.08455858838189     -0.83189981485394
  H   1.75268751281750     -0.14198019790438      0.35331579857972
  H   3.47181335623975      0.07123074989884      0.62370337627665
  H   2.12651369194998     -0.64242952258351     -2.01530481452012
  H   5.05283788478691     -0.17876655974238     -1.30575826400790
  H   4.10542030581145      0.70433265476173     -2.49386513655825
  H   3.41220240967564     -4.10726549245860     -1.77623463228785
  H   2.27007036079776     -3.08638528527042     -2.64887558146734
  H   4.04002731838908     -2.26644557944473     -0.31890692342615
  H   0.29130532537147     -3.42357673680340      1.18928309842922
  H   3.94908014661181     -5.01789463921508     -3.40439943650852
  H   5.88999917215531      0.10440203585058     -4.08503111071094
