26
Coordinates from ORCA-job 21576optt
  C   0.91690606230963      0.16848465613705      0.01439860259909
  C   2.40820467881820      0.01962014218429      0.03935614332488
  N   3.11174664505637      1.13887835567073      0.03450698703884
  C   4.44177841629506      1.08741079915732     -0.09837407574179
  N   5.15711115698742      2.29707674721578     -0.15252386863291
  C   5.02786931071658     -0.14128350766406     -0.30699460408164
  F   6.36057672769600     -0.17760792700152     -0.55143911185201
  N   4.39609426247890     -1.27797406131864     -0.29492393737620
  C   3.06695212114330     -1.23652550521114     -0.05735790960260
  N   2.39509427824276     -2.44132215072688     -0.03828083022568
  C   2.86320590672422     -3.51898275894898     -0.80549959133216
  C   2.16614995231916     -4.67840885412231     -0.83213633780111
  N   1.03640514692584     -4.91779801721180     -0.12122199012591
  C   0.68186392394436     -3.94219628148285      0.71175666085058
  N   -0.42769638610201     -4.14772252040931      1.53988502984919
  C   1.35169499689259     -2.70233066162070      0.89755211320160
  O   1.09248246339612     -1.89577599811968      1.81535582400094
  H   0.67371337335291      1.09011051673246     -0.51323404945958
  H   0.51473028645979      0.19845359183107      1.02531109364166
  H   0.44783219311610     -0.68069743452662     -0.48219508540834
  H   4.66534569809931      3.01781248014955      0.35759437501169
  H   6.10934508653011      2.20137260809859      0.16999076556550
  H   3.76492656970014     -3.34194413877887     -1.36643411617568
  H   2.52691291162738     -5.48519928818573     -1.46017039096361
  H   -0.53052742448588     -5.12057142091660      1.79194691924804
  H   -0.39771835824442     -3.52487937093109      2.33713138444720
