31
Coordinates from ORCA-job 21588optt
  C   2.68950474903914     -1.57324641237890     -3.40022372071937
  C   2.30925163022267     -1.84641025274857     -1.95352397454218
  C   3.08795775734567     -0.96334585875177     -0.92138956020605
  C   2.38649505035688      0.39160846609869     -1.06885105227218
  O   2.66979075462380      1.24626419693190     -1.85743253326795
  C   2.77049935306703     -1.47109586037795      0.42498285574891
  C   2.52517105080937     -1.90098822252713      1.52007290386620
  C   4.58465095325923     -0.89083100462740     -1.10692283166537
  C   5.31394569648054      0.24882852373983     -0.69188312246830
  C   6.72258941149317      0.25980781357070     -0.59348427059484
  O   7.40763145102998     -0.91424106791379     -0.92046099465188
  C   6.71526208995192     -2.05663659375434     -1.27202445331906
  C   7.60875010051619     -3.20288223908965     -1.57058638322362
  C   5.36666054663048     -2.03709160664326     -1.35767981179340
  F   4.75662089367933     -3.21596519622712     -1.69128561010918
  N   7.43746778418482      1.27314834860223     -0.23272401735703
  C   8.86517996891823      1.08488507018579     -0.17793210205647
  H   2.05528521064093     -2.16077310715321     -4.06781864154314
  H   3.72889357006007     -1.84436656835993     -3.57829411457568
  H   2.57331748502540     -0.51833639049495     -3.65111238141103
  H   2.48971388698168     -2.88847866536094     -1.70029566139551
  H   1.23910026891731     -1.66732859826346     -1.79687479421412
  H   1.49736183051742      0.49548278340956     -0.41184691947535
  H   2.34956350741188     -2.28160731809730      2.49644132060332
  H   4.82763367864158      1.18554236649182     -0.47115563739190
  H   8.29333770001585     -2.96540285934084     -2.39345337796441
  H   7.02226265832848     -4.07745234462857     -1.84513522380607
  H   8.22839523798066     -3.45436296677064     -0.70307813468581
  H   9.33097524985692      2.00863935947512      0.17276250083095
  H   9.30489386587358      0.83887373506368     -1.15543965268039
  H   9.16783660813961      0.27676246994043      0.50364939634094
