31
Coordinates from ORCA-job 21616optt
  C   1.72245242840667      0.94207102837383     -0.11650150955211
  C   2.71491751348059     -0.18478376374678      0.15538547640647
  C   2.02247329251438     -1.32691958865910      0.89638052127726
  C   3.34895184189807     -0.65066174264915     -1.15835884704239
  O   3.94131330289338      0.45542762440644     -1.82923170020319
  C   4.37750373814484     -1.75357912410864     -0.97556455060910
  N   4.92435327472273     -2.18136770265195     -2.26525755670620
  C   6.30885717886327     -2.50844075060532     -2.26373041027865
  C   7.34044477512776     -1.59180771533822     -2.00050007543808
  F   6.94703656025623     -0.28530541725266     -1.83616048123166
  N   8.59045740498378     -1.82686379560011     -1.90118575271416
  C   8.94277951890440     -3.15770584135169     -2.05668347502384
  N   8.04303216905719     -4.17517561038310     -2.31578502673664
  C   6.78482180274812     -3.83742798552097     -2.41984920477907
  N   5.86468902065235     -4.82682609963684     -2.73059286777217
  C   10.30117950809736     -3.49073236503079     -1.93654517759987
  N   11.42563034187339     -3.77181780679167     -1.83640767751036
  H   1.32204047223795      1.34007124271332      0.81808587073717
  H   0.88173957768515      0.56705423581194     -0.70815603500640
  H   2.19379782570494      1.75146526421262     -0.67102210879192
  H   3.52644121799884      0.20742915073342      0.77855522742451
  H   1.32732106359189     -1.84583019168356      0.22954961238743
  H   1.44576379408098     -0.93874388391920      1.73812759118321
  H   2.72757679796783     -2.06041525498950      1.28522895660711
  H   2.54506942635419     -1.01784772871650     -1.81262916171132
  H   4.90321441955377      0.38434336084002     -1.75876551290793
  H   3.92718603904475     -2.61001931371884     -0.46776994474041
  H   5.17226432114245     -1.36899626176364     -0.32056121242933
  H   4.70299209251198     -1.49182667569149     -2.97328802252051
  H   6.17046595461198     -5.75256661381082     -2.47772052828764
  H   4.91223332488854     -4.59120067347092     -2.50004641643013
