27
Coordinates from ORCA-job 21610optt
  C   1.14692486616977      0.28905715245089      0.17782019304008
  C   2.63581699267019     -0.00961461521735      0.27046149921824
  C   3.03499209576594     -1.21834602006035     -0.58994667114959
  O   2.55421850201505     -2.37306121051952      0.05355342667647
  C   2.53211840906937     -1.21249576217004     -2.03305698506344
  N   2.06119884238831     -2.45866834690392     -2.42405771536490
  C   1.57866442484770     -2.47549419052556     -3.66218446058755
  F   1.10935417666261     -3.68067181654318     -4.10566248318338
  C   1.52026908960056     -1.41350760798464     -4.51099284295089
  N   0.94918346866185     -1.50189499529665     -5.79988835957296
  N   2.00528692534350     -0.18904221785302     -4.14835651518790
  C   2.50701237885646     -0.13711193598074     -2.89250577897779
  N   2.96122757494668      1.15249185403311     -2.52276542191655
  C   4.56840594901324     -1.35718588702552     -0.57132376012725
  F   5.06613993469262     -1.39583830591008      0.67960922107791
  F   4.98638955229329     -2.46532409867854     -1.18094953533351
  F   5.19271328252344     -0.31971185922644     -1.17881144789015
  H   0.85652365332150      1.02462664321468      0.93083837485784
  H   0.57147369882308     -0.62207039749205      0.34588966087997
  H   0.89687577119331      0.68211413007693     -0.80690640216245
  H   2.90424742499204     -0.27088444055919      1.29638619139792
  H   3.21118990541831      0.87328789085776     -0.00643511075805
  H   2.21925645260338     -2.92676503373801     -0.68737312678768
  H   0.98377659348114     -2.44561299446765     -6.16062494912421
  H   1.43057733910986     -0.86253556570087     -6.42035277453227
  H   2.97904986701140      1.72004428065121     -3.35994240465687
  H   3.87511282852536      1.13821535056875     -2.09342182182101
