25
Coordinates from ORCA-job 21612optt
  C   1.62825469541529      0.72622620566927     -1.43161201794477
  C   2.83313192877153      0.61321736764484     -0.54795840306237
  N   3.73194932911293      1.58552409465963     -0.54856414484059
  C   4.81039742044637      1.47180189532029      0.23340270518881
  C   4.99316367677945      0.31519714169857      1.01876754471019
  N   4.08538670405880     -0.65233814314021      1.02367182131224
  C   3.03717756179739     -0.49030639593952      0.26859182912643
  F   2.10147042017284     -1.46352941576078      0.29211301654030
  N   5.73981621448707      2.48101907683688      0.20057641306243
  N   6.71398587703904      2.39794205897995      1.20003382576647
  C   7.83803095335476      2.96310254684082      0.93596931008508
  C   8.29597998131795      3.67065926729778     -0.24709544432050
  N   9.60442997388231      3.79047690989714     -0.51017512005076
  C   7.37858210947413      4.32770122916311     -1.11701994130837
  N   6.08917725817205      4.52016610908295     -1.02192844444576
  C   5.31420451809575      3.86755606457420     -0.12544127260192
  N   4.28321535164369      4.38560458416880      0.41365500304819
  H   1.68302871157079      1.65878883246030     -1.98761867495998
  H   0.71052893977864      0.70614565142283     -0.84134294407298
  H   1.58218197615413     -0.11329619025293     -2.12773234944302
  H   5.87284740255337      0.19717254833087      1.63137947127423
  H   8.57365502314368      2.84481180479038      1.73069204308188
  H   10.13602417007405      3.30813904517606      0.21429018764924
  H   7.86980743762841      4.83120073231431     -1.94798353282151
  H   3.80857236507551      3.70501697876443      1.00032911902704
