28
Coordinates from ORCA-job 21618optt
  C   0.89534118912830      0.13986109178763      0.00540175655713
  C   2.41489872526228      0.08000389273293     -0.06284889273364
  C   2.97610643682556     -1.23589725577143      0.48942146095271
  O   2.47804679244913     -2.33456268739151     -0.25724817659272
  C   4.48214420797588     -1.18797900700307      0.55005438020550
  C   5.18379343442623     -0.57146765972376      1.63724211224069
  C   4.52364436897597     -0.22000232753437      2.93754956239624
  O   5.32987727843616      0.64201476554372      3.72306305092287
  N   6.56522682576165     -0.69207403625000      1.71843944739628
  C   7.21083546484278     -1.14940455334184      0.73369906044166
  F   8.54153562503559     -1.23074846658630      0.75177713763330
  N   6.64039926000587     -1.50272064790698     -0.45666598041132
  N   7.21619597793122     -2.21610145652333     -1.50401104245336
  C   6.13486846037334     -2.60806450699748     -2.14240321646544
  O   6.24132025781547     -3.30857866451765     -3.28855106155097
  N   4.93303155595984     -2.30677792746010     -1.64682261084931
  C   5.24062124446412     -1.64957163472215     -0.49277210448083
  H   0.50827692574187      1.06556690403052     -0.42511256576734
  H   0.55478203683301      0.08527193788824      1.04282296739753
  H   0.46073689732757     -0.70251256933867     -0.53310068021307
  H   2.86135314224897      0.90908737461208      0.49384000354414
  H   2.75923220490350      0.16924577354026     -1.09760559817129
  H   2.58534027525147     -1.36993479549650      1.50534759313384
  H   3.10440529601599     -2.51456736117882     -0.97922179204458
  H   4.30245760651395     -1.12752379576405      3.53108924563801
  H   3.56737132128596      0.28063038125363      2.76123238746863
  H   6.23439960492964      0.47747658991392      3.42204778826744
  H   7.18675758327860     -3.40066935779490     -3.45466423246210
