26
Coordinates from ORCA-job 21623optt
  C   4.29346490988968      0.54120895884240      2.23033717839381
  C   3.58190230143392      0.17862021685488      0.98002931115770
  C   2.82207785627769      0.91227603495394      0.09471825207895
  N   2.38001731992042      0.05364189183113     -0.87833648291656
  N   2.82054366776596     -1.13563919227852     -0.65019726472562
  N   3.55164142523112     -1.07045402079176      0.46609411292268
  C   2.52399696708715      2.34340728863617      0.12115643099548
  C   1.18864189535166      2.77819509032979     -0.00688298656752
  N   0.94912212055245      4.14634673807315     -0.06117108209081
  C   1.95672095338885      5.02681059708047      0.05747716550638
  F   1.57471385953334      6.31752301032304     -0.04536626574787
  C   3.24322266214825      4.69828713697918      0.24587768108341
  N   4.26466968985775      5.67721148806034      0.37488539791283
  C   3.60789401074198      3.27131832233756      0.29079245913528
  N   4.85141852212469      2.88884493750009      0.43725347469961
  C   -0.00727169254693      2.01793985678234     -0.04165581832604
  O   -1.14065108330459      2.57447119564118     -0.10382938983199
  H   3.79039674158399      1.38921055680725      2.69318798603912
  H   5.31010587351339      0.86597721380983      2.00833797813643
  H   4.30582989752770     -0.29564572181025      2.93297593972084
  H   3.99561371478692     -1.90128507511520      0.81700697875565
  H   -0.03034838424310      4.40731427549896     -0.06734069583113
  H   3.88883142945676      6.60681297980024      0.24150455382401
  H   4.98857950702124      5.52286267101243     -0.32090887876797
  H   5.44105169975496      3.69964890873776      0.60144840904106
  H   0.09081413514467      0.92909464010350     -0.01239444459775
