27
Coordinates from ORCA-job 21637optt
  C   4.62392545891496      3.08439765588627      1.76111238758226
  C   5.06171348341386      3.25492424073467      0.30503588257383
  N   4.16568928352512      2.53041247434112     -0.55883570350248
  C   3.94784936438008      2.98260673221561     -1.74856919172775
  N   3.19101463332299      2.34145477655178     -2.63857845126045
  C   2.85334999010308      2.80277492238928     -3.92930740635048
  N   2.50980147542401      1.91006845540601     -4.86706306816629
  C   2.24864307564104      2.64326689162845     -5.98767438370151
  C   2.43391904125378      3.99775096540151     -5.76446894270136
  C   2.30194279346268      5.19406448016541     -6.57164031947507
  C   2.51409263161674      6.36090196088505     -5.95434992137163
  F   2.44025792226726      7.55304833291376     -6.59115868716775
  N   2.79480970905443      6.51999856843089     -4.62270249582588
  C   3.09815214888532      5.39282942079291     -3.81675922863658
  C   2.82693289489947      4.12853633687714     -4.38720036742466
  C   5.17425142468404      4.70714019483901      0.01762718892762
  N   5.24939250612817      5.83303074478436     -0.19025436527748
  H   4.57669498321201      2.01817249895913      1.97709329367886
  H   3.62947430168122      3.50903470496880      1.89468993464746
  H   5.32011371014570      3.56938856019267      2.44653851417792
  H   6.08299416690044      2.85989185400057      0.21249450805271
  H   4.36416963681737      3.92107008771328     -2.12489635052035
  H   2.84667012863486      1.42435094007247     -2.39236201178363
  H   1.93593275380026      2.15926375426005     -6.90293489928231
  H   2.02625462617341      5.18464454649409     -7.61649524647500
  H   3.23636228942169      7.39412862632261     -4.38522849700725
  H   3.17859556623585      5.60184727277297     -2.76011217198265
