27
Coordinates from ORCA-job 21630optt
  C   1.04727642899741      0.09442890537383     -0.20649808050267
  C   2.53642904241637      0.12815662090938     -0.07629004137612
  C   3.39000713938576     -0.97874965515063      0.07447983510913
  C   3.03383290069848     -2.41828496260212      0.09107090559482
  N   3.35070570122242     -3.01104199484696      1.39941385742219
  C   3.19848069552906     -4.30949061049473      1.67977542444793
  O   2.71908032361640     -5.14278031580159      0.93202128535947
  C   4.74452034849991     -0.52063972942283      0.21612739356398
  N   5.89986608883158     -1.12031777905677      0.37538594014723
  N   4.65105795622764      0.85341935342046      0.14716510593927
  C   5.68561552623297      1.78573250967872      0.18946261453992
  C   5.39009141057818      3.06810659675990     -0.01944588048633
  O   6.27627568938591      4.10200432848945     -0.04913718859321
  O   4.14567492360443      3.54113255058517     -0.23965053534076
  C   3.08580564965250      2.65697901768953      0.03326615097609
  F   1.98989810576470      3.15236142323651     -0.59580578958223
  C   3.33143697025912      1.27414005003990     -0.04530210243078
  H   0.60364581320432     -0.55867766287089      0.55051199486857
  H   0.73208753520021     -0.28513418329030     -1.18294937634447
  H   0.62497479242150      1.09123342171024     -0.08708791211228
  H   3.58511218027339     -2.99065289743499     -0.66497447246655
  H   1.97126088311601     -2.56833328813511     -0.11048139593421
  H   3.83012007074914     -2.41308618650135      2.05538773187993
  H   3.55079620996087     -4.57266859583489      2.69316594297739
  H   5.75852329545340     -2.12598693857518      0.36184198611238
  H   6.67821759735326      1.40654390751746      0.37614483472031
  H   7.16120672136475      3.72660611460779     -0.02959822848902
