29
Coordinates from ORCA-job 21639optt
  C   0.96055435472112      0.08351286122036      0.21023325142649
  C   2.46536054547005      0.02140507871385     -0.04744987524530
  C   3.18987533725341      0.76408556631257      1.09791228814687
  N   2.83483477287448      0.24760257204563      2.42438653960732
  C   2.99142448671321     -1.42764350679143     -0.03433832463788
  C   2.22318483562281     -2.43815330440271     -0.83811530194894
  F   2.04477165035743     -2.09814020759797     -2.11699200284661
  F   2.85965320921750     -3.63292863478327     -0.84350472559022
  F   0.99551241139018     -2.69433182642682     -0.33510607620870
  C   2.89205926189090      0.73305329586858     -1.33409699690163
  C   2.01380669677611      1.44632419236145     -2.10459841993747
  C   2.48093765544692      2.16123713938998     -3.25698885125222
  C   3.88665142853824      2.06928645181685     -3.51040429788517
  C   4.66791128676512      1.32385728799179     -2.67478918102474
  N   4.23081512586977      0.64195602672022     -1.58420880490669
  C   1.62411251105862      2.91387372305727     -4.06531823955812
  N   0.91723648212659      3.54780504141435     -4.74048510719585
  H   0.69874943067829     -0.50887067096097      1.08858565309727
  H   0.39252280535059     -0.30624171285946     -0.63352959010265
  H   0.65143381737945      1.11831647133971      0.37693462077648
  H   2.96317659252324      1.83070579641226      0.97986255558217
  H   4.26272029162003      0.64318909165399      0.95083667897658
  H   1.90098967059925      0.54446667777388      2.68127777944987
  H   3.46295691788281      0.62445751212518      3.12296242866355
  H   3.00871122933583     -1.79953512956971      0.99202592869281
  H   4.00785366764610     -1.41089044852086     -0.43012430376655
  H   0.96038885284875      1.48113321553593     -1.86478579115986
  H   4.32596333279433      2.58207424951085     -4.35627848142015
  H   5.73483133924885      1.25439319064851     -2.87090335283064
