31
Coordinates from ORCA-job 21652optt
  C   0.96388501121411      0.16442940310854      0.20770559697369
  C   2.47800841364865      0.03271743641639     -0.00791622642464
  C   2.75247864892257     -1.39794180598481     -0.50885227693232
  O   2.20242734311817     -1.63705502178177     -1.79825115478415
  C   2.76053085493578     -0.77605900299902     -2.76291860185733
  C   2.41317709423801      0.68032780279275     -2.47648719983844
  C   2.97348462425286      1.58230381632700     -3.56308684014497
  O   2.58866277781953      2.94100917393016     -3.41398339259654
  C   2.92292936329409      1.04912817176400     -1.08187288755106
  N   3.07598469163425      0.28076000592476      1.28220911341844
  C   4.30152848679790      0.16799822474315      1.63781633069937
  S   5.69765643009202     -0.26793705087766      0.35794547121191
  C   6.91365668861103      0.67661068822401      1.14967344684592
  F   7.86581979190361      1.18038333502631      0.32343955659464
  N   7.04360469538214      0.87432790962448      2.41357269456883
  C   6.01243334758620      0.55590824922982      3.21665477341665
  N   4.74604404415898      0.30949844489587      2.87360289940713
  H   0.39766764309903     -0.11888320273850     -0.68066217165285
  H   0.72512448462884      1.19285974909116      0.48364248659305
  H   0.66862877362808     -0.48070807043965      1.03573211692464
  H   2.28556008935094     -2.11176485417849      0.17053851295127
  H   3.82565013360522     -1.60469949370071     -0.54097478663167
  H   2.36712489819201     -1.09366223096037     -3.73109877228146
  H   3.85597650056965     -0.89055795993950     -2.77793454294752
  H   1.31793944925309      0.75998090981997     -2.51170883548410
  H   2.65512888052893      1.21547592572963     -4.54791051067805
  H   4.06591096922141      1.56579603766897     -3.53557098266368
  H   1.71530147032566      2.96256076639752     -3.01248069667914
  H   2.57851853113123      2.04139220465594     -0.78091324948748
  H   4.01323733641031      1.08611120811571     -1.11421910146792
  H   6.21791853244560      0.59368923011433      4.27930923049775
