26
Coordinates from ORCA-job 21658optt
  C   1.08657016933797     -0.09351056901397      0.17663877153771
  C   2.48361876778194     -0.53595605512143      0.52470478480654
  O   2.93436182546684     -1.62748056847756     -0.34894999615224
  C   4.24599308579731     -1.02347778937123     -0.46325815564035
  C   3.65146091131912      0.29065879166856     -0.06825719548096
  N   4.75162153431515      1.20874796355747      0.18978578696901
  C   5.52205197182938      0.89933762517678     -1.06996601036332
  C   5.07135011221944     -0.53277227915225     -1.70688182673424
  C   4.24213461703460     -0.29203812934168     -2.97585337198958
  O   3.31754499582267      0.59586744125359     -2.99713655043785
  C   6.22363509503544     -1.34773530189928     -2.07055822866035
  C   7.17942512952818     -2.00163439811871     -2.39165267572549
  C   5.11734794266745     -1.74274718895580      0.56800950363256
  F   4.59930242415070     -1.74168256316616      1.82091657628463
  F   5.28691088819727     -3.02919077871737      0.24735058419966
  F   6.34064738004248     -1.20014383615812      0.70131046235953
  H   0.37054210205221     -0.89292599805357      0.37764667510442
  H   1.04257770007160      0.16878387724316     -0.88103467701935
  H   0.81167568102022      0.77672341881524      0.77680916489166
  H   2.56762838835636     -0.84022104039963      1.56778136974175
  H   3.21212618320500      0.65552437439982     -1.00216210427938
  H   5.29663178553581      0.88290424209240      0.98210440906384
  H   6.59055254051575      0.91469103794412     -0.86622182235221
  H   5.25935359110937      1.63697924434865     -1.82431407008517
  H   4.23176847052063     -1.15699122516041     -3.65217002675694
  H   8.02416670706704     -2.57871029539260     -2.67664137691387
