29
Coordinates from ORCA-job 21653optt
  C   1.00997671172738      0.02985717656159      0.01528842653663
  C   2.45546796301095     -0.41453517629589      0.15608581257033
  N   3.00661764904708     -0.75386309851136     -1.14924391343702
  C   4.44755802248397     -1.01139419676512     -1.13297037066039
  C   4.70582525553831     -2.17458752529959     -0.27126445157329
  N   4.85969517843357     -3.07461169955729      0.42273122961342
  C   5.03612747652286     -1.26940961713218     -2.55717954926676
  N   4.47135300119805     -0.38529690128921     -3.57129822775607
  C   6.52244528228974     -1.06605848692324     -2.50573303289560
  N   6.92521709964933      0.17535347528843     -2.11982831712045
  C   8.26055019704198      0.40105226077760     -2.14889857164505
  N   8.70970107120981      1.70012850621806     -1.79527169561219
  C   9.10762004616056     -0.56479720954762     -2.53756877030201
  F   10.44621402710907     -0.39952406975173     -2.56319715361810
  O   8.75500172430361     -1.79058796775790     -2.95582444093314
  C   7.36343598745693     -2.10071188065139     -2.96654711004159
  O   7.08149187929248     -3.21533979569589     -3.37040263614978
  H   0.57703908534824      0.26456054476995      0.98848059787154
  H   0.41715928986625     -0.75672951578682     -0.45210381424207
  H   0.93809061839643      0.92482871504282     -0.60783339801357
  H   2.51265253872606     -1.30110557247436      0.79095665620594
  H   3.04242757168138      0.37238736334245      0.65573007999801
  H   2.86653969552668      0.03474249097817     -1.77155707348841
  H   5.00774122887282     -0.16653218514445     -0.70794516766957
  H   4.82254718536816     -2.29919980166487     -2.84132792270402
  H   4.78790412257393      0.56634095252883     -3.41974491754113
  H   3.46236503765917     -0.43211328487655     -3.62639039516420
  H   8.08030972612851      2.07669843145123     -1.09751312036606
  H   9.65292532737630      1.68144806816638     -1.43062875259530
