29
Coordinates from ORCA-job 21665optt
  C   3.47259987029840      0.03330843629074      1.24523828498288
  C   2.53681432615470      0.08486017191640      0.03465568180816
  C   2.74780252799448     -1.06507710585173     -0.91426044310948
  C   3.58679082022644     -0.94890961742094     -2.03917050414495
  C   4.36405251961786      0.29629002868969     -2.34678751000473
  C   3.72830694032199     -2.11692786943893     -2.97100757518173
  C   3.47479401109089     -3.43531654791914     -2.21541951019043
  C   3.47644136274041     -4.70153681711942     -3.06245174484543
  N   2.22584094028553     -3.34307592024101     -1.49185458996129
  C   2.06248410749777     -2.25804849366006     -0.58615301099761
  O   1.31887466364752     -2.44255642280672      0.40976540209922
  C   2.88160050812565     -1.94206400258187     -4.22502560802697
  F   3.18251599202538     -0.77930121858511     -4.84499514372525
  F   3.10857385992837     -2.89877360756733     -5.16648391089479
  F   1.56631928108204     -1.93636251856771     -4.01276641949328
  H   3.29533998727714      0.86444313781447      1.93589845738633
  H   4.51825017662108      0.06489800314344      0.92862962185694
  H   3.30824451448753     -0.90327611519494      1.78013387104439
  H   2.66273590012098      1.03704457557775     -0.48853568027521
  H   1.50737534454667      0.04259492743842      0.39733120504902
  H   4.71222000174568      0.79107421816544     -1.43371779406967
  H   3.80478765647354      1.05256630725421     -2.91918961942137
  H   5.25086237185044      0.06079894763000     -2.94679781931782
  H   4.75371979322815     -2.16198912340290     -3.37011592596308
  H   4.32888469283010     -3.49599982032727     -1.52005300129069
  H   2.59462109304670     -4.74253297996385     -3.70100240620110
  H   3.46388529170542     -5.57639797152747     -2.40709497109884
  H   4.36659580328613     -4.75684641254363     -3.69121783072759
  H   1.95766564174290     -4.20188618920045     -1.02955150528557
