30
Coordinates from ORCA-job 21687optt
  C   2.11905592708283      0.36263399112926      1.81274754554292
  N   2.95701252383363      0.27195556845640      0.63492026258581
  C   3.77405296090342      1.40197899461688      0.37650764410272
  C   4.94606397895378      1.22853657020466     -0.38467018765584
  C   5.37050001849074     -0.07818468404964     -0.79313421924996
  C   6.56668749203016      0.10476734032366     -1.47559007892338
  N   6.92053833284393      1.41577843861561     -1.51319836320055
  C   5.94833366208090      2.09294547642038     -0.86382896212614
  C   6.00282483840906      3.58014156698792     -0.74344511060052
  N   5.48028656171901      4.04298811100805      0.53501929140649
  C   6.06558012903461      3.57379778549013      1.78544587139033
  C   5.43387527024832      4.56300579114274      2.77999529536826
  N   5.02369036429565      5.73256987564444      1.97596625090102
  C   5.06990914654135      5.32043283301222      0.76584108550963
  C   4.53986317555899     -1.20721593440564     -0.44935310056903
  C   3.42055507999579     -0.96395855130071      0.24459593800234
  F   2.57148241717336     -1.96642781960230      0.57977727898540
  H   1.56745343770762      1.30198125924766      1.77089915940201
  H   2.72409195903530      0.36237248972574      2.73115075906846
  H   1.41152265365083     -0.46160212545569      1.84275846919877
  H   3.32295469282189      2.35350700520501      0.61526203613231
  H   7.19156854829906     -0.65210846701169     -1.93178571535240
  H   5.40806955067471      4.08123104317331     -1.51833654801941
  H   7.04796740402978      3.89397037104471     -0.87484604165114
  H   7.15944883383983      3.67275123183848      1.73835173874625
  H   5.81112435510210      2.53052735251823      1.96696241593563
  H   6.10895705241772      4.85777601935176      3.58318557035150
  H   4.53925539884442      4.12652809641543      3.23786459711936
  H   4.77299654816612      5.93312751801093     -0.08055832134851
  H   4.74727768621486     -2.22080714775808     -0.76450456105236
