28
Coordinates from ORCA-job 21707optt
  C   1.14245032109253     -0.47200748442849     -0.04577214597003
  C   2.63786452347817     -0.26720446337817      0.17042137766720
  N   3.26163950666912     -1.57693501365867     -0.06895990289525
  C   4.71676286182093     -1.50717678996952     -0.11705700459892
  C   5.21688658095483     -0.69363294532332     -1.30081408213439
  C   4.57084647023722      0.67042297927364     -1.38315024459309
  N   4.52288051707359      1.39470607850620     -0.10421287481711
  C   3.25492944323371      0.88674737656922     -0.64828255191379
  C   2.30914483468009      1.91158140555861     -1.23962746523560
  C   1.75765066193608      2.90057066624568     -0.23999397176602
  F   1.54468391553820      2.38445337967145      0.98898251734763
  F   2.55164720975980      3.96413470597060     -0.05167347952078
  F   0.56210418861121      3.39399425036485     -0.64281089373032
  C   4.91041665304050      1.45491925110319     -2.60070152653137
  O   4.82503171890946      2.74092238995346     -2.60138276379240
  H   0.81266417238828     -1.31220635803569      0.56619690745951
  H   0.93699995603216     -0.71691946576088     -1.09230984879416
  H   0.55658333063900      0.40511147871315      0.21914117419120
  H   2.81252132721641     -0.03103957293001      1.22620104328948
  H   2.93576391088069     -1.90994518574474     -0.97392683193461
  H   5.11660708238476     -2.52445724924003     -0.15068395694130
  H   5.05546302922965     -1.04646328352479      0.81388936738400
  H   5.00922304714494     -1.23165760663554     -2.23374073959496
  H   6.30084856013380     -0.55736157928449     -1.23903478862293
  H   4.62660311150975      2.37777966112376     -0.36684078143407
  H   1.45600583505933      1.42965442633577     -1.71582982210044
  H   2.84807055688972      2.49353000972079     -1.99339419802013
  H   5.47770667345587      0.91147893880396     -3.36863251239732
