30
Coordinates from ORCA-job 21722optt
  C   2.95931506901372     -0.37055835536566      2.40110813076904
  C   2.47642999714921     -1.41522450505019      1.40271131365601
  C   3.01763273785488     -1.18275949865929     -0.01532690722299
  C   4.52314336012521     -1.27255589083428     -0.10194415680977
  C   5.32136230562726     -0.09125125142813     -0.24268706036702
  C   4.77642152717785      1.30407067010038     -0.23046312090265
  C   6.72761359203529     -0.29752100755537     -0.23428485455400
  N   7.80823626945104      0.48749310534983     -0.02785558563131
  C   8.87294747489271     -0.35260666827053      0.11414773718864
  C   8.47349270209876     -1.67776714702106     -0.02376117295732
  N   7.14482615389757     -1.57813183138715     -0.30508678517135
  C   6.44847693825148     -2.77160545917441     -0.34584492829813
  N   7.42759003331039     -3.68244817351138      0.17791221075514
  C   8.70964556202054     -3.09744465091390      0.22250305573386
  N   9.83202882843350     -3.68768453244543      0.43377199845972
  C   5.08507830924984     -2.53569549091980     -0.05834572565462
  F   4.26810568610554     -3.62706077685857      0.02929654619098
  H   2.62639629798221     -0.60292104701320      3.41455995100112
  H   2.58032334481852      0.62096097448054      2.14166284991176
  H   4.04998441457766     -0.32130422976222      2.39981682697991
  H   1.38140701664303     -1.41949095658946      1.37296650740184
  H   2.79067854209301     -2.40807618699608      1.73084824867950
  H   2.69010984972332     -0.20108992374069     -0.36595446071055
  H   2.57107206202626     -1.92696440313811     -0.68057640742642
  H   4.13195597950329      1.52130755438293     -1.09099283287293
  H   5.61237349178316      2.00381499979537     -0.26148401334287
  H   4.19050190835129      1.53187273551642      0.66780841278645
  H   9.86088681251923      0.02205148071629      0.32592525326275
  H   7.37327910551766     -4.65558393281715     -0.07207640586813
  H   9.68268462776643     -4.67882560088964      0.61164537501331
