28
Coordinates from ORCA-job 21729optt
  C   1.08177665404817     -0.47191528100190      0.55032173737189
  C   2.45934826324173      0.12676325819701      0.33020385023716
  C   2.56926907436604      1.61825736633539      0.71722084380369
  C   2.46357357913026      1.99952615152855     -0.77571233367765
  O   1.12427216334414      2.32644461832300     -1.15212798166710
  C   3.43330645639317      3.03906616162785     -1.30160810910786
  C   4.87097001209806      2.64996216805676     -1.06569592491732
  N   5.79458506902577      3.49897067896577     -0.65651800696559
  O   5.25852243104141      4.82707289930667     -0.56107913053724
  C   5.16569904518530      1.28902580586024     -1.32891431929414
  C   4.16935264350933      0.33068449447419     -1.60217235260460
  C   2.75879025241217      0.53620692600293     -1.16286396863513
  C   6.58926555230458      0.86227378575144     -1.31967244022971
  F   7.39350885016986      1.57319560483564     -2.14234041304232
  F   7.17853044563254      0.93920485538670     -0.09910311063391
  F   6.75369211463812     -0.42863255711801     -1.69971877488800
  H   0.86087345397485     -0.58033239551625      1.61649195424063
  H   1.00541434314120     -1.45885382385643      0.08596211960442
  H   0.31758509086075      0.17042365166958      0.10776236279217
  H   3.23546948421634     -0.51041666699997      0.75524822331891
  H   3.54700864528585      1.87873767956920      1.12315988551695
  H   1.77615818884005      2.01667317820115      1.35573661053295
  H   0.95931325338693      3.22778288819675     -0.85509161152335
  H   3.22003313449684      4.00666849903573     -0.84329223436604
  H   3.25848448307828      3.12601082561363     -2.38117076876387
  H   6.03851573474417      5.31038609481720     -0.28444638601436
  H   4.46457151154080     -0.68139270162385     -1.84185953995045
  H   2.02711006989322      0.12520583436100     -1.86572018060014
