26
Coordinates from ORCA-job 21738optt
  C   1.59978468511431     -3.78083270576426      0.56809109998135
  C   2.80975318217334     -3.19274112898494     -0.12157147264193
  O   2.80099954554957     -2.09158687032164     -0.59799044882410
  C   4.02573527453480     -4.10358661701560     -0.16914068477069
  C   5.29052350445120     -3.37213239502319     -0.55729109161003
  O   5.63395881951476     -3.20566555840029     -1.69540985767604
  O   5.93071570156770     -2.95971074908645      0.53068476228828
  C   7.20486760915037     -2.36396706025277      0.42378156646533
  C   7.36211042845556     -1.13993411904725     -0.19931834563726
  N   6.29971694782191     -0.42433074720265     -0.78429848954741
  N   8.59130654527131     -0.54922362164895     -0.19959055745700
  C   9.56557023611703     -1.15715819687822      0.38223119267655
  F   10.74964696084007     -0.50406620172263      0.35043240788874
  C   9.54520808566954     -2.41288550286087      1.03327376979002
  C   10.68231959575379     -3.01906768383562      1.62808473555388
  O   10.67067497189292     -4.14130430396514      2.18232018465480
  C   8.25433502874210     -3.02469475735364      1.02956364241310
  H   0.72171761099099     -3.17627029298023      0.35649716152254
  H   1.78484223251364     -3.79057940531068      1.64474427437339
  H   1.43965232572602     -4.81418048599050      0.25649288114406
  H   3.82600809886859     -4.86927717479922     -0.92252905693208
  H   4.14480543005035     -4.59412630174658      0.79756114834302
  H   5.77337282106084     -0.98350093464253     -1.44695607472017
  H   6.67229125756294      0.39499509155911     -1.24468129613128
  H   11.61596763275964     -2.43632036546244      1.57935179633319
  H   8.11811546784627     -3.98285191126259      1.50966675251972
