31
Coordinates from ORCA-job 21745optt
  C   3.46040153822442      0.30853542116645      1.08916958463773
  C   2.44793788625908      0.01441573363065     -0.02669397473575
  C   2.99117516740562     -0.82996472584232     -1.13975706946221
  C   3.11245179113085     -2.24063347197179     -1.09404259180392
  O   2.71969376887800     -2.89622148936067      0.05300630263532
  N   3.56150320004999     -3.01401068523276     -2.03014523384493
  C   3.96313673722779     -2.45179604012135     -3.22002960592022
  N   4.37664322694680     -3.25575338565900     -4.20808437226830
  C   4.66376449221196     -2.71788878938797     -5.37978978482847
  N   4.46824050747521     -1.35495850577833     -5.69999148324179
  C   5.10485412915448     -0.93842486059149     -6.92417501995636
  C   4.58986646225642     -0.40816659889933     -4.59246437077763
  C   6.03945698811550      0.01148401812330     -4.30594180643715
  O   6.89835998567430     -1.08001974904781     -4.05413744482750
  C   3.95908326454986     -1.02133192699256     -3.37226211378494
  C   3.47941983874631     -0.28587693172524     -2.33306161393834
  F   3.48380906850638      1.07509330712512     -2.43870316565270
  H   3.01469751231130      0.89766322748779      1.89620653700300
  H   4.30779171646018      0.86119896729133      0.68156176689117
  H   3.85462450011475     -0.61689050127943      1.51533883286510
  H   2.09950159461796      0.96295005508807     -0.44010325821368
  H   1.55495077039972     -0.45187245634091      0.41230322333101
  H   2.42184981102731     -2.24126435549846      0.68935264200916
  H   4.95403943007222     -3.34984543507079     -6.20955015955102
  H   4.76708156697522     -1.57880165010494     -7.74149730315525
  H   6.20362673713995     -0.99725874778000     -6.87610048865680
  H   4.81993412715988      0.09041720181348     -7.15689849599330
  H   4.05205685919466      0.50648455981687     -4.86976586022552
  H   6.02532624144406      0.70170478547595     -3.45319201078297
  H   6.45717794867826      0.55024912902834     -5.16347425919969
  H   6.37454313159146     -1.82621609936218     -3.73107740211397
