29
Coordinates from ORCA-job 21748optt
  C   0.90518134365304      0.02539213046643      0.03677039385767
  C   2.38247692567337      0.16652636300634      0.08490775534247
  C   3.20677611006529      1.22199978762366     -0.05238354929581
  C   2.97272556578325      2.65145394844941     -0.37895302119111
  O   3.94941992462231      3.47445895128947      0.25244341716368
  C   5.25947239047794      3.10851498402389      0.04231335803090
  C   6.20447439649632      4.10339213339601      0.01478643305384
  C   5.88443212741891      5.56102365980627      0.15359207105867
  C   7.53878737092213      3.65689064603937     -0.11342780437423
  F   8.51494559227042      4.61834082263968     -0.17916008418728
  N   7.93078737313067      2.41807566162772     -0.19412389723529
  C   7.01696589778352      1.45018852396210     -0.15987129558446
  C   7.50258760860478      0.03529181273132     -0.26604241155704
  C   5.61025192611383      1.72029165252266     -0.05453712540663
  C   4.57057118276540      0.76183181663402      0.05447075412604
  C   4.45133349360669     -0.60792635448743      0.28603377994491
  O   3.09823490295213     -0.97198954286737      0.27430742032721
  H   0.44120106273629      1.00636328349023     -0.06722082487850
  H   0.52467173064307     -0.44318466090162      0.94818730812737
  H   0.58939957165660     -0.59373418432894     -0.80788177473501
  H   2.00488293570100      3.01523111834369     -0.03093941800453
  H   3.03444162315270      2.81215908099603     -1.46408978424797
  H   4.80885501520069      5.71880739925763      0.11219210243261
  H   6.36324681362095      6.14102963612570     -0.63851573718521
  H   6.25527558930561      5.95878508572834      1.10322920152119
  H   8.58080467673095      0.03669204476857     -0.41945019077656
  H   7.02037829540025     -0.48533914019738     -1.09989071321741
  H   7.27827364950744     -0.54356363811424      0.63643661761301
  H   5.14114490400428     -1.42800302203162      0.34581701927745
