25
Coordinates from ORCA-job 21751optt
  C   1.38612442730775      1.73036465782220     -0.12927284365584
  C   1.90062783457475      0.36208933258329      0.30217308995756
  O   1.42659351435462     -0.63018719700259     -0.30671873416382
  C   2.85767742638107      0.24149421220588      1.35747056097831
  C   3.46295124901024      1.33264898534440      2.05047147276688
  F   3.21559775848821      2.60434379219794      1.62023237311939
  C   4.29838054575337      1.21145265763529      3.11993885512340
  C   4.64263502646991     -0.05607637827127      3.61974355116387
  C   4.15002834650956     -1.18305151947080      2.95117955719890
  N   4.47681281575431     -2.47429532223683      3.42539621695051
  C   3.32099550445347     -1.02929360368837      1.85879987132506
  O   2.88188872418894     -2.23815666719516      1.29101755786011
  C   3.17006965433619     -2.48070895770204      0.02573793078777
  N   2.65178472309639     -3.50819430064293     -0.58694580327158
  O   3.22752720423023     -3.43350231984625     -1.85463991288624
  C   4.03621483933242     -2.38610731840315     -1.83244429826413
  N   4.07832552282934     -1.75908782464984     -0.71571355709881
  H   0.59657012263672      1.54671666708552     -0.85638196238192
  H   2.16752687038409      2.33557542135598     -0.59284547977265
  H   0.98586590517229      2.30742113393207      0.70587986753166
  H   4.68721641689917      2.11809102293727      3.56653931663421
  H   5.26247991121064     -0.16979382697189      4.49849458928525
  H   5.44750688608364     -2.53575403516774      3.69765944153586
  H   4.25087031483352     -3.19294385103329      2.75266658149341
  H   4.57972845570908     -2.16204476081767     -2.73743824221718
