27
Coordinates from ORCA-job 21769optt
  C   0.99905427485603     -0.07379413803971     -0.07952093044255
  C   2.45965035394647     -0.15640675756276      0.23352173601793
  C   3.11629419908635      0.56734473151172      1.19716174743820
  N   4.44207503865525      0.20361300971733      1.17428502144385
  C   4.64692429112538     -0.75859298245084      0.20837441972735
  C   3.41120821434864     -0.99381348018761     -0.41007477003164
  C   3.13958322049279     -1.93754038151180     -1.54154099374480
  O   3.17100917627906     -3.31709512413663     -1.20637426624099
  C   5.89709889911565     -1.37167113072866     -0.00442083095259
  C   7.10713676992155     -1.16551953713996      0.65781713864801
  F   7.28855781146802     -0.04903320741581      1.44628855893278
  C   8.12487535159995     -2.07533497958168      0.51725434042322
  O   9.34076819735744     -1.85831799231083      1.10183821418861
  N   7.99524416651690     -3.21410801721139     -0.15958649295127
  C   6.84097031182745     -3.41828702279521     -0.82650792815849
  N   6.45794210376309     -4.47550514993927     -1.44016655543591
  O   5.91286100645548     -2.37920451125628     -0.94471665629579
  H   0.49662318079543      0.60897175718800      0.60750828346715
  H   0.52097575994104     -1.05244499201715      0.00518879989559
  H   0.82209635025358      0.28517879262103     -1.09680141720342
  H   2.74710462875314      1.30657844467172      1.88864770429488
  H   5.16506068545564      0.54252812902141      1.78220349966477
  H   3.83923149242161     -1.74837637779613     -2.36110226627558
  H   2.13187275134055     -1.74354403274554     -1.91826271227291
  H   4.10037033812560     -3.59397790863745     -1.18535633665145
  H   9.28131367527187     -1.03049142682010      1.59087806403371
  H   7.19809775082594     -5.16515571444638     -1.35453537151863
