28
Coordinates from ORCA-job 21768optt
  C   1.09427364630250      0.47674300947078      0.09902714032512
  C   2.57072890322417      0.09231948820189     -0.06230984869609
  C   3.04312192972179     -0.87046446913679      0.97281152326064
  C   3.68321762402647     -0.65424668055398      2.16103090981046
  C   3.82407440881969     -1.90440132375263      2.84317823868791
  C   3.25663017469759     -2.87593707284736      2.00992813826713
  C   3.21610238375523     -4.24841458511327      2.30589686354873
  C   3.78065444629703     -4.57195171771103      3.54226240007773
  F   3.77641312095382     -5.89202934108742      3.87776320168975
  C   4.32976046410767     -3.67841711140699      4.42169543149865
  C   4.37820281955831     -2.28568753161313      4.11261213730556
  C   4.93133455633720     -1.34969477352269      5.02267504658168
  O   5.41205416712803     -1.60957964066614      6.14718264186655
  N   2.76303438075100     -2.23248271448495      0.88927209271634
  C   2.16103752607672     -2.91102510633430     -0.20959761801899
  C   3.12775621147886     -3.41663438572727     -1.21064096227304
  N   3.85500333214000     -3.80276419306522     -2.00782470461363
  H   0.77527404708973      1.17488905275611     -0.67810267526063
  H   0.93833640973349      0.94111291242658      1.07298770110907
  H   0.44677088643915     -0.40141414059805      0.05441611449166
  H   3.18371040936062      0.99181493608148      0.01366408982964
  H   2.74075898578961     -0.30638303634827     -1.06912125520387
  H   4.00854548794124      0.31389439522638      2.50847871490010
  H   2.84785473846362     -5.01518520835008      1.64041068687972
  H   4.73745548912812     -4.02166951583638      5.36268367349126
  H   4.91846343754903     -0.29862110492283      4.67412267166505
  H   1.46888111591213     -2.24942239665348     -0.73235999311784
  H   1.58854889721711     -3.76434774443089      0.16185763918129
