30
Coordinates from ORCA-job 21760optt
  C   2.47233637415831     -0.76137306769822     -0.76998591424794
  C   2.62591611164817      0.24824460720634      0.37031817541484
  C   1.32665873318567      1.01158242751963      0.61447043879630
  N   3.09940849588843     -0.34412296197601      1.61065721786333
  C   2.20957554603081     -1.25926695838894      2.29462962921817
  C   4.48664541975764     -0.48562735687236      1.78958868330872
  N   5.27963155075760     -0.38916837455879      0.69295962043601
  C   6.60654971485902     -0.48389620096582      0.90081108125382
  N   7.56947900003927     -0.37345235740465     -0.00702312596763
  C   8.74273984613919     -0.57721093998618      0.67476037567167
  C   8.50368095892546     -0.81405507534572      2.01019737969232
  N   7.15319962035339     -0.75080689245760      2.15533842073010
  C   6.36013663333760     -0.91547888894409      3.30160825306313
  C   5.00371198474079     -0.68504626002580      3.05407327652979
  F   4.17632968191939     -0.65411434900121      4.13737647226090
  C   10.02179291051533     -0.54272847836608      0.05823088364177
  C   11.11662790565580     -0.51641850757638     -0.44309122209632
  H   2.17361937294509     -0.25323217157811     -1.69025434924409
  H   1.70781929621029     -1.50931045122727     -0.54290560301131
  H   3.42712497339917     -1.25833867849251     -0.93504160605537
  H   3.40064483856094      0.95377331592365      0.07153821898569
  H   0.51869532626297      0.33428839262349      0.90330526030967
  H   1.01448308587483      1.52990557742292     -0.29463664372000
  H   1.45757152890661      1.74525792645263      1.41129627926279
  H   1.49296063733257     -1.70106903285619      1.59500912250809
  H   1.64312079528876     -0.77392763924090      3.09661854360559
  H   2.78145186225584     -2.07285797382377      2.73884163144324
  H   9.16772024003818     -1.02085343612126      2.83140226091562
  H   6.81792982402527     -0.75589305750267      4.26629295003228
  H   12.07743773098747     -0.49180313673810     -0.89438571060121
