27
Coordinates from ORCA-job 21764optt
  C   1.06433958621763      0.42463156887434      0.82491232348709
  C   2.42584415831484      0.14503825896634      0.18633130540086
  C   3.10106766154116     -1.05686148991369      0.79671206305157
  C   3.90652994581133     -0.97732682550326      1.93606938116605
  C   4.24025392959093      0.35856580341009      2.49591479761776
  O   3.44713924287172      1.17893771577864      2.88922252390421
  O   5.55837463523068      0.61767122821479      2.40337247241308
  C   6.00815756308115      1.69036037796875      3.21338883821368
  C   4.46365358361130     -2.15483797326879      2.52082338913604
  C   5.11098120560461     -2.09147433404186      3.80213443207643
  O   5.12368914072443     -1.03297694782487      4.48341085468489
  C   5.77287335679397     -3.25581173754456      4.35523377014786
  C   6.35156191475359     -4.16157438501983      4.89923981045132
  C   4.18894468140951     -3.33385093611197      1.77835612000007
  F   4.70016616570223     -4.49334047240112      2.22399656405207
  N   3.47990359784133     -3.42981901713673      0.70869866120017
  C   2.91987682461664     -2.29860736460724      0.21611932971553
  H   0.57964786808761      1.28376694198112      0.35571124319235
  H   1.19125443362836      0.63222421909963      1.88660497716531
  H   0.41001132659133     -0.44231107650951      0.71456433309019
  H   3.05834544939676      1.02836651956085      0.29089928921799
  H   2.29807574751704     -0.03589479779850     -0.88417521293875
  H   7.08477415153073      1.74586648291264      3.06976346526267
  H   5.77541880523150      1.46848997775319      4.25538811560920
  H   5.53593611541604      2.62821562543403      2.91913468655773
  H   6.85652812173049     -4.97584481926586      5.35742152552994
  H   2.32265078715301     -2.40760254300659     -0.68224905940540
