29
Coordinates from ORCA-job 21776optt
  C   1.98137737116112      1.06436562595515     -2.16180018113135
  C   2.35002370351804      0.47207128371266     -0.83678048642895
  C   2.78618406874407      1.20346633147605      0.20591029506024
  C   2.89574450317321      2.70599601448410      0.26105795275614
  C   1.56810218687528      3.49143837510366      0.21992293391945
  C   0.44272758763738      2.98892687398318      1.14887355835998
  C   -0.32639812883607      1.88322031827952      0.50099537200748
  C   -0.17909666620649      0.53043755701515      0.63615583355040
  N   -0.87912616733189      0.01140490462644     -0.38887015249566
  N   -1.45293502825975      0.97185608159544     -1.11215032020041
  N   -1.13506810503584      2.10524333512626     -0.57365155486085
  N   2.96113612501334      0.57897342795180      1.45400065284301
  N   3.16976889386302     -0.80638691803095      1.54068471400194
  C   2.60959879864723     -1.46297858042716      0.55401859220586
  F   2.59819526054620     -2.80029463499589      0.74082601149929
  C   2.03932058464886     -0.95778774412061     -0.63266283571821
  O   1.28628353577372     -1.61203476287235     -1.43266821480921
  H   2.46472072700506      2.02883858418308     -2.32812797372827
  H   0.89949887181160      1.20584099790095     -2.23869801353917
  H   2.25956050115762      0.37594536364923     -2.96087795245198
  H   3.52167254400673      3.06243281461169     -0.56197960801951
  H   3.42429738712237      2.97533436861608      1.18229662888227
  H   1.17446150482607      3.49101489844534     -0.79863832262415
  H   1.79939192233431      4.53220217320307      0.46678838183375
  H   -0.23189230857528      3.81991071103689      1.36632319050658
  H   0.86021140909563      2.63880311224195      2.09593996107935
  H   0.42586821636676     -0.06828985398245      1.29472608073480
  H   -0.69994442992545     -0.90404367079243     -0.80159843415766
  H   3.62431513084303      1.04609301202406      2.05298389092482
