29
Coordinates from ORCA-job 21778optt
  C   1.08796254254300     -0.52954145557573     -0.15129179884043
  C   2.60549229474095     -0.68281971838677     -0.14989727535021
  C   3.16846250748887     -0.45604136566172      1.23700629808983
  O   2.78298570860017      0.54269907228366      1.91534982807092
  C   4.62757378916359     -0.97038450802462      1.52797277974041
  C   4.72116156847291     -1.33215214649677      3.00870219394682
  O   6.01169604547382     -1.76356474649760      3.41115450248275
  C   5.47653007757405      0.17538631930227      1.03358378425969
  N   5.38321919894539      1.40012414633189      1.62066399716695
  N   6.20078301923945     -0.06014901472629     -0.04045835885375
  C   6.02960889942400     -1.40775844817814     -0.30055679269791
  C   6.60863116805702     -2.19697283471972     -1.28043919982118
  C   6.28895922902968     -3.55376806824080     -1.29551323149219
  C   5.41822452269599     -4.02920307676128     -0.32830915769823
  F   5.13340171122055     -5.35245145484746     -0.32701169273736
  N   4.83924016035951     -3.31886167353863      0.60845675796449
  C   5.12985750548373     -2.02025134690842      0.59906786590025
  H   0.67622111066844     -0.64435168838785     -1.15660111536341
  H   0.81221872320348      0.45110852560074      0.23573230030156
  H   0.63386482240890     -1.28161103747652      0.49812703572804
  H   3.04037043997984      0.04971046442245     -0.85333539123982
  H   2.88933286321079     -1.67137256753397     -0.51533104774253
  H   3.97293893716359     -2.10984846153906      3.19599370004628
  H   4.47062667717534     -0.45817479128619      3.60694717362494
  H   6.26474817304120     -2.48570050740331      2.82622674005994
  H   4.45023161872883      1.54055401879559      2.02006152424366
  H   5.70154297396343      2.14828512763680      1.02019143826948
  H   7.29744136469971     -1.77426678803973     -2.00113246873044
  H   6.70567234724365     -4.23762197414278     -2.02136038932858
