29
Coordinates from ORCA-job 21783optt
  C   1.24383644918866     -2.00917859722049      0.45291827534121
  C   2.61938561431056     -1.63089337402355     -0.01630420170897
  N   2.95553679106870     -1.13043208082712     -1.12533600019474
  O   3.50338411634676     -1.89787809560479      0.96484563217192
  C   4.81038540842112     -1.42395631312840      0.85544638885326
  C   5.66635609257525     -2.12699446017361      0.09802073471849
  F   5.31706771602115     -3.20994971559676     -0.60145778617564
  O   6.96306897415683     -1.82893580826502     -0.09782487353372
  C   7.49885807171204     -0.90663700208433      0.83391876732543
  C   8.97870257758492     -0.87591567751037      0.77254645650993
  C   6.68528925743261     -0.13327209039369      1.59524110463812
  N   7.21964025736698      0.84543101013855      2.46064833677709
  C   5.24587376862868     -0.28013539932699      1.62418658600835
  N   4.54036045643190      0.60007203092970      2.35557818375105
  C   3.12050449006776      0.53406987620683      2.35241036525453
  C   2.58418410153922      1.69798416723177      3.14067362078389
  O   1.41222859299385      1.93122863671571      3.32037147669328
  H   0.51023843879775     -1.88328225393566     -0.34028586783353
  H   0.97728699762905     -1.37681503961124      1.30217652211520
  H   1.24432829845607     -3.04375162103856      0.79611683729059
  H   2.13271006676036     -1.00140873888227     -1.70518769198234
  H   9.39266954750078     -1.88719424175826      0.85113397693880
  H   9.36907323533957     -0.28397219955809      1.60010726859093
  H   9.35488824840827     -0.45163135517407     -0.16856828144325
  H   7.85946349627160      1.46791684662619      1.98666046569751
  H   6.42635652136856      1.36671428743858      2.83062122704802
  H   2.68561259384860     -0.38019013008875      2.80476446532664
  H   2.65478147808862      0.60002914875444      1.34474580634479
  H   3.37192834168368      2.35597819016028      3.55783220469314
