32
Coordinates from ORCA-job 21788optt
  C   2.03878662035592      0.63860638757400     -2.10441002419854
  C   2.26726658190335      0.53341238038055     -0.59995703044420
  C   3.11743053765663      1.67874330409164     -0.06559421675154
  C   2.52912384471869      3.07931282576221     -0.30478630606092
  N   3.22022493552347      3.87364854590360      0.67663541985081
  C   3.54152373773147      3.09522037094447      1.80636266493489
  N   4.26640728490338      3.61365892599162      2.82728816991892
  C   4.36481646398029      4.91223997185816      2.80505586054271
  F   5.03306610836171      5.45661097791936      3.85938350295202
  C   3.84621023956539      5.80062974503690      1.87225146766310
  C   3.20702449492565      5.25803217598445      0.70688972200912
  N   2.66174335027196      5.88041377957304     -0.29460223959680
  C   3.45624737249898      1.64790989402441      1.44800642389904
  C   2.49258312068084      0.85837590088892      2.37544302535042
  N   2.95051492073160      0.87436341549562      3.76911304481557
  C   1.11637241914967      1.36642204184496      2.31983193271870
  C   -0.00777749113046      1.77807847299812      2.25341365101603
  H   1.47796372847125     -0.21727703547358     -2.48447274418998
  H   2.99005081400955      0.68478330526203     -2.64044681124873
  H   1.47815161513709      1.54198596095900     -2.34986912021231
  H   2.76134077268147     -0.41675115050666     -0.37191081002546
  H   1.30254403042299      0.51905664711560     -0.08704033154631
  H   4.07861387991506      1.65345203182704     -0.59087641012439
  H   1.44392290741984      3.08642512103505     -0.12750683644322
  H   2.71402165105174      3.47014098890061     -1.30390793033013
  H   3.96460307412369      6.86656665483562      1.98595647569979
  H   2.76385419331940      6.87996068581358     -0.14327540927728
  H   4.42677805371858      1.14388202381470      1.59336466760589
  H   2.46937204288746     -0.18885387589428      2.04955537475746
  H   3.05694747943354      1.85363343916265      4.03396948416149
  H   3.89821447450035      0.50591581073598      3.78108796095411
  H   -0.99094325892063      2.17740027614052      2.19904737159971
