15
Coordinates from ORCA-job 217optt
  N   -1.83115782070821     -0.36503761760852     -0.03884439833589
  C   -1.09356772886994      0.71886099984802      0.02267373341289
  N   0.23669310119262      0.82097722037261      0.02745769871189
  C   0.84620760641871     -0.40364591092215     -0.04193742248978
  N   0.24394708797943     -1.56514946524455     -0.10586359523796
  C   -1.09857877016834     -1.53593951773594     -0.10389597391532
  C   2.33209179961398     -0.39889077552872     -0.04692033186359
  C   -1.79035135814939     -2.80948780489529     -0.17671797850046
  O   3.02964917329216      0.58634136707049     -0.00381774132285
  O   2.88445314315389     -1.63440106598291     -0.10642881162668
  O   -1.29120668661599     -3.91933021170416     -0.24049704692720
  O   -3.15397316019627     -2.68445701678166     -0.16989814787969
  H   3.83670341000723     -1.47309480937266     -0.10050020900008
  H   -3.46423610468590     -3.59693054654149     -0.22285138297138
  H   -1.63667369226400      1.66218515502694      0.07604160794610
