32
Coordinates from ORCA-job 21800optt
  C   2.69673281848168     -0.89083957454192     -0.48358752286211
  C   1.95731227600027     -0.21631906549492      0.67457973987061
  C   2.70581613378991      0.98893312050009      1.17699978312429
  C   2.50174993706812      2.23599085340707      0.60421086288573
  F   1.63394200333634      2.36448684867421     -0.42340610575721
  C   3.15515144683640      3.35948191712617      1.05358084156506
  N   4.01710378084692      3.30940599871343      2.06461856144613
  C   4.25558398966628      2.12958665710143      2.63539694847227
  C   5.22153562832118      2.12156247004654      3.78795344646389
  C   3.64447828108955      0.93947822358351      2.20946142543342
  C   3.97057732703819     -0.36793514876849      2.88443159496070
  N   3.15986845654459     -0.54352542087114      4.08814716018337
  C   3.32013645437377     -1.89519950849404      4.62735741839938
  C   2.77037700770809     -2.97366616271484      3.69016958046731
  O   1.88189687087652     -2.64886726212660      2.84824544229201
  C   3.28255050403574     -4.29217607216317      3.83978563438132
  O   4.14772366570901     -4.64230053343091      4.68253612198278
  H   2.14405439484061     -1.76646999560750     -0.82404771530988
  H   3.68505919329009     -1.22334727228686     -0.16369368275477
  H   2.82179036221874     -0.20406301160857     -1.32339229396584
  H   1.81362865714694     -0.93943591588722      1.48141251206395
  H   0.97274476089426      0.10500020523554      0.33158499322213
  H   2.96698781748157      4.32076293714952      0.58720099614105
  H   5.37168671018583      3.14201991183946      4.13344199880540
  H   6.18905109548770      1.71430726092971      3.48304046246350
  H   4.83946395425631      1.50229285923063      4.60006221985874
  H   5.02164175706085     -0.37316208535277      3.18462847429834
  H   3.83644605905562     -1.19526258709761      2.17843809200674
  H   2.18791684294325     -0.47841180915218      3.79194472146767
  H   2.79592310427485     -1.94374811277655      5.58722030115823
  H   4.37345021163546     -2.08976852514686      4.83951504443506
  H   2.84561849750502     -5.02981120001511      3.14116294280045
