32
Coordinates from ORCA-job 21822optt
  C   2.81134772884312      0.01826179382645      1.23020870772050
  C   3.01767048357647     -0.54794903390942     -0.16845743501763
  C   3.26597200091839      0.56180764580223     -1.19149914373254
  N   4.46219013986037      1.27576018510961     -0.84754905628261
  C   5.19085477548902      1.89415279370358     -1.75503655083203
  N   4.61575771130253      2.60534108500139     -2.89977987265894
  C   3.26664674582881      3.13920072724426     -2.77901983254864
  C   2.24504902597850      2.48996516083852     -3.70987212897502
  C   5.39513180335523      3.19887595101828     -3.86713505393657
  C   4.97932808706146      3.92468823103111     -4.93446949402404
  S   6.33996205375081      4.48546323760676     -5.87949371001306
  C   7.48552287999016      3.73127544640424     -4.76434326537207
  N   8.76967513720789      3.75125304934298     -4.79907871456359
  N   6.77878771899873      3.10966127405145     -3.76941169025215
  C   7.40438100110489      2.53944866254079     -2.64714791685526
  C   6.58585625891067      1.95337608664563     -1.70822073729374
  F   7.20624636596707      1.30494527234388     -0.69605763062821
  H   2.66595049097745     -0.76910082203378      1.97358183449808
  H   1.93281072979571      0.67011653638724      1.25302879329267
  H   3.67975236998249      0.61515699277991      1.50765454173295
  H   2.14205281021671     -1.13360458699118     -0.47162547106682
  H   3.88344184144120     -1.21482488785221     -0.17035915201070
  H   2.34623778176801      1.17871521949191     -1.20509602222279
  H   3.33445465610595      0.10652713430802     -2.19387203840875
  H   3.30750227406685      4.21499115684683     -2.98456680263975
  H   2.97204518536569      3.01492387831894     -1.73975094100494
  H   2.56070105280541      2.55439820542191     -4.75103538335596
  H   1.28015517215282      2.99345176281798     -3.61288391267092
  H   2.10897313019515      1.43781740421413     -3.46722070737796
  H   3.97081244009968      4.11568036419235     -5.24662562109168
  H   9.09942420241242      4.27505900100727     -5.60199194851417
  H   8.47830594447020      2.54916507248888     -2.63587364389354
