28
Coordinates from ORCA-job 21843optt
  C   1.32710914236922     -0.36709226202595      0.19115415917415
  C   2.80648946946072     -0.13026447920765      0.16664638220967
  C   3.70872319221995     -1.17604732596682      0.28861914367012
  F   3.20122003437394     -2.44263426527611      0.43849306288151
  C   5.08914833529407     -1.05411613858950      0.25692663175983
  C   5.65800847525425      0.21358379281761      0.08792654273111
  C   4.81800998011247      1.33632881784199     -0.02658339016720
  C   5.07097129650286      2.68818878917113     -0.21563373145090
  N   3.84738048222183      3.35242328336598     -0.40993374543816
  C   3.71171834665548      4.72244964021370     -0.01051815349470
  C   3.59595323533958      4.92981375196455      1.45964554192683
  N   3.44493567951841      5.07846382490676      2.58758867166222
  C   2.80869121603035      2.42756188686306     -0.16051224930891
  C   1.39338878105704      2.90962820102411     -0.21794952724379
  C   1.00065127285307      3.46260016612067     -1.52395391546380
  C   0.70780161187720      3.93645150408915     -2.58743227510442
  C   3.36693999313302      1.17175965498654      0.01338854040993
  H   1.10785661858839     -1.43063300066386      0.26929846399112
  H   0.84414072487832      0.01003963968276     -0.71819233785784
  H   0.84806418289518      0.13378320772565      1.04155326370674
  H   5.69443019029623     -1.94582917637002      0.35072612665492
  H   6.73416184963297      0.32992735597471      0.04915569813603
  H   5.99895514030904      3.20818799531097     -0.39378851956196
  H   2.82150823759757      5.16209287332896     -0.46728176597326
  H   4.57968628481090      5.28237517710283     -0.36031395560225
  H   1.19809373192123      3.68459571624346      0.53778938566414
  H   0.72785529483691      2.08417874985509      0.02421312444167
  H   0.45910719995966      4.33618261951018     -3.54003117235278
