29
Coordinates from ORCA-job 21849optt
  C   0.65763159266877      2.51338971220611     -1.08677841491323
  C   2.11829570889256      2.65595416973823     -0.69823529635221
  O   2.13485104125614      3.38135551368559      0.51724904897259
  C   2.79294202169721      1.28426363484209     -0.56262962609277
  C   4.28731595932271      1.35522845734600     -0.48396443000202
  C   5.03670369479812      1.66782593873846      0.62149216373516
  C   4.66291585435788      2.10598501085561      1.97814905575664
  N   4.64036998362674      3.58881619717583      2.05041274766846
  O   6.38729316513955      1.73559827118498      0.32278252645728
  C   6.49839440008516      1.42660856397243     -1.02178144438718
  C   5.20248966344578      1.18875453008923     -1.54624788350162
  C   5.17146483200168      0.83329909238319     -2.91412585978135
  F   3.99046292367692      0.56193182413332     -3.52711741795409
  C   6.30963916693940      0.75965904271041     -3.62244203589236
  O   7.54250537402399      1.01273186725361     -3.09089161721824
  C   7.70706110226472      1.35210946257147     -1.70588005626210
  O   8.86075812550958      1.52733021435600     -1.33505972219716
  H   0.18650485558970      3.49524103198553     -1.14286942313012
  H   0.13113719228837      1.92424101122916     -0.33223880570275
  H   0.56001866039076      2.01680007923891     -2.05300140782366
  H   2.64782470558684      3.21687713276611     -1.47949783675679
  H   3.04568609651016      3.56537245860590      0.81194513072911
  H   2.51723971009543      0.67237587280090     -1.42363458782839
  H   2.37579835290874      0.80720140004616      0.33062569303620
  H   5.35688782395079      1.67550990665742      2.71008315044063
  H   3.65513963512845      1.75111443958321      2.20291376003807
  H   5.52589354655529      3.93960859206305      1.70011791721847
  H   4.54822243490156      3.90387146565936      3.01159451128574
  H   6.33055237638689      0.49594510612167     -4.66996983954227
