31
Coordinates from ORCA-job 21853optt
  C   -0.62413951003291     -1.10042051217962     -1.26154131591244
  C   0.85374321923371     -0.74639322641070     -1.16848653481731
  O   1.09160286084262      0.32778323008723     -2.02676890224061
  C   2.50406346417421      0.60136306620276     -2.22600639331671
  C   2.71922980731787      1.57804094064505     -3.31612835593517
  C   2.56606784698231      2.98452251703031     -3.09368474392781
  C   2.17377691297341      3.49911217781180     -1.74204021085111
  C   2.83916657411641      3.85789428613462     -4.17402768764660
  C   2.73609023806515      5.35228129254089     -4.07679220565093
  N   1.32704008413359      5.79064555282563     -4.09708401979330
  C   3.18436512976519      3.29159060073444     -5.35758803490802
  F   3.49116029877503      4.01175607625326     -6.46033597477951
  O   3.29472079748760      1.98548133592172     -5.62629180474314
  C   3.06175569326940      1.03740914220430     -4.56422360931383
  O   3.20939255265311     -0.12441837104845     -4.91298064543374
  C   1.22592229272094     -0.44577567611777      0.23330412288007
  C   1.50484749400887     -0.20230138036973      1.37443808222248
  H   -0.86117830800551     -1.34560465084007     -2.29590009974724
  H   -1.22173666150377     -0.24182128845128     -0.95656449012548
  H   -0.86162941507421     -1.94786252278733     -0.61786770417530
  H   1.45527983796522     -1.61251833357631     -1.48292323808110
  H   2.99207614648941     -0.34455742506767     -2.47933958906014
  H   2.89701540458640      0.96522909279498     -1.26923363270496
  H   1.41332676209907      2.85564501458923     -1.28932337984152
  H   1.76026598077780      4.50648708448153     -1.80679393601813
  H   3.01869121007678      3.52707290154582     -1.03657266350272
  H   3.31619757561570      5.80034659292074     -4.88799857405610
  H   3.17614298126470      5.68832257798553     -3.13413754870129
  H   0.82632587887952      5.23296131648214     -4.77985430413020
  H   1.25849212898480      6.75876788762837     -4.38934500724180
  H   1.76392472135755      0.02796070002851      2.37909240155375
