27
Coordinates from ORCA-job 21863optt
  C   1.16203906814125     -0.27433586387435      0.09486022132652
  C   2.66597977199152     -0.19293660186054      0.11006065221501
  N   3.18710449247801      1.02212928746102      0.06045032331161
  C   4.55485935079418      1.09635188717485      0.04242898476138
  C   5.38154579598212     -0.08024295855483      0.07629512899675
  N   6.74187723954311     -0.04558753066775      0.05636266361007
  C   7.30739770465317      1.16335333960747      0.00199223985670
  C   6.63686493467647      2.37174792455048     -0.03196302905180
  C   7.33842569324913      3.69375764433516     -0.09052631293179
  C   5.23137977944621      2.30170369442241     -0.00814631200238
  F   4.54007583659644      3.46936703553947     -0.03289268859143
  C   4.66423785092021     -1.27687700196916      0.13931052612414
  O   5.37560723334682     -2.44759734152673      0.19168983309637
  C   4.59857099192915     -3.61525480953628      0.28513076202497
  C   5.49439601392438     -4.77170220170428      0.35348504587552
  C   6.19585184912419     -5.74101873105348      0.41484310852033
  N   3.32222951860608     -1.35091397242913      0.15448850507827
  H   0.78733413884957     -0.02073553552065     -0.89984487167283
  H   0.74111668350363      0.44900545068350      0.79356428535453
  H   0.83405316335803     -1.27995026319112      0.35053011067546
  H   8.39622703836823      1.17738274608063     -0.01592847071187
  H   8.41899988012648      3.54402808381083     -0.10639828813317
  H   7.09112953539617      4.32184311265917      0.77022467854116
  H   7.05777074298863      4.26189713513852     -0.98225174115787
  H   3.93122345525613     -3.71324129396771     -0.57574594525275
  H   3.95968641261609     -3.59171753248552      1.17272866552205
  H   6.83201582413434     -6.59045570312198      0.46825192461504
