25
Coordinates from ORCA-job 21866optt
  C   1.01051571103325     -0.67698715039900     -0.14037798381456
  C   2.40509972114731     -0.05617968520744      0.00066226855678
  C   2.81737436491216      0.72694819513750     -1.20899404108107
  C   2.74700271751818      2.10099086615096     -1.29973561346436
  F   2.33014722959976      2.76839945352151     -0.20257150005238
  C   3.06959455243365      2.86258967063871     -2.42239598575468
  C   2.92282448479780      4.26305177178785     -2.40649840753840
  C   2.80425469762936      5.46456689068179     -2.42881355966502
  C   3.55497074029817      2.15391499195789     -3.60106097139326
  C   3.92445041542454      2.81313311796304     -4.77956974787450
  N   4.23051187449990      3.35795043321972     -5.75820194128179
  C   3.62653078176415      0.73736123307249     -3.52302381015735
  O   4.04627984026807      0.02832991596365     -4.63624124721873
  C   5.19538831245697     -0.67208331307516     -4.50715823874732
  N   5.64413077351071     -1.45788676204286     -5.37831070081505
  C   3.26827435079740      0.07516619785273     -2.39172722552342
  F   3.33200389775292     -1.28111277156409     -2.37418369235280
  H   0.74192760529810     -1.25812064355471      0.74537972465545
  H   0.97501560521124     -1.33773960006957     -1.00770164166530
  H   0.26197686780170      0.10399082122300     -0.28245453043158
  H   3.13026597743903     -0.85444655482216      0.18223281971925
  H   2.42483226230501      0.59990222651575      0.87136625635530
  H   2.69885960869591      6.52058352991231     -2.45744110166387
  H   5.71837860823646     -0.49499206002988     -3.56839102819565
  H   5.01038899916822     -1.48733077483404     -6.17778810059569
