30
Coordinates from ORCA-job 21862optt
  C   0.85185951892248      0.05638402590684     -0.70495957141353
  C   2.26592089983512     -0.17019806087450     -0.16517411395971
  C   3.31963983509761     -0.01116322357858     -1.21474781368949
  C   4.23826334325564      0.99684041553801     -1.32936617810276
  O   4.50115285396896      2.09448819518502     -0.55701171876049
  N   5.00873233446429      0.78373214731301     -2.42396509477895
  C   4.59537909208662     -0.38147752840105     -3.04780585905507
  N   5.21841482938367     -0.78406042750904     -4.23937260548781
  C   4.37760907618994     -1.15823840697730     -5.32485297057326
  C   3.23403174822904     -0.39483125712903     -5.68528358923489
  N   2.49077468936009     -0.78770804739447     -6.78310681358993
  C   2.89934774892556     -1.84108840549408     -7.43650495215028
  N   3.97126244533322     -2.63875044683258     -7.18941030375544
  C   4.65281651238545     -2.24175501029304     -6.09552868097576
  F   5.75155409463093     -3.00316549648846     -5.78233313370402
  C   3.55377430507365     -0.89356601059510     -2.32706068251884
  C   2.78089345522159     -2.12484352793062     -2.67060001112295
  H   0.09615345996237     -0.09267746233575      0.06978528973261
  H   0.64804895642288     -0.63668465628562     -1.52187376123782
  H   0.75114237506311      1.06733505010699     -1.10253597469810
  H   2.32569807043297     -1.17495459236732      0.26570612154008
  H   2.45226747510536      0.51628477150545      0.66938894170346
  H   3.79521676138256      2.16872175785776      0.09129762513018
  H   5.68749996246961      1.41627699863890     -2.81070393406998
  H   5.94586661019022     -1.47266763877372     -4.09767220457198
  H   2.90916657826774      0.45784315787207     -5.10634103378395
  H   2.30838402074353     -2.12812127504532     -8.30509201892435
  H   3.38241227258486     -2.79337522327387     -3.28728285306146
  H   1.88974026004128     -1.88076029909052     -3.25583353351924
  H   2.46897641496942     -2.66381952325406     -1.77175857136611
