17
Coordinates from ORCA-job 2187optt
  C   0.95095636729926      0.02719088856375      0.13952203917398
  C   2.44394550718757      0.01596627267601      0.19230113095977
  C   3.18734552520486      1.19796314339582      0.17015348626378
  C   4.58146536022190      1.19575697278817     -0.05401627587767
  C   5.30908822357426      0.01818362386133     -0.14351361422777
  C   4.60958410313152     -1.28364935309392      0.13752122417493
  C   3.13067838340114     -1.23135156994240     -0.28691934223751
  H   0.50146860026489     -0.79581925140802      0.71193291271201
  H   0.55438544571256     -0.07510237234635     -0.89275516210800
  H   0.54892517902858      0.96318780624792      0.53892087772506
  H   2.67893573791602      2.14926000189309      0.31370153712429
  H   5.09524738233270      2.15005942193384     -0.13967009334261
  H   6.38442344520436      0.02879123550353     -0.28104634231448
  H   5.10928557983807     -2.11948590009563     -0.36938983974098
  H   4.63090320746171     -1.52775366936239      1.21430457785351
  H   2.60623766553617     -2.12610524788624      0.07827446817851
  H   3.09012428668439     -1.29109200272850     -1.39432158431681
