31
Coordinates from ORCA-job 21889optt
  C   3.55412980509731     -0.32136980866989     -0.98332586964828
  C   2.57249641170040     -0.20331286772164      0.17259814665451
  O   2.80372530747212     -1.31983017203192      1.00687242991270
  C   2.79956185171414      1.06025140295135      1.00780499643652
  N   2.59659908942068      2.43545374860044      0.45179972492954
  C   2.75888302909817      3.21767249437165      1.70564038218374
  C   2.07756275616514      2.41625008951724      2.81823477269000
  O   1.66843747531919      2.91519179908664      3.88200958872767
  C   2.06257439234919      1.06203610553312      2.35981849092027
  O   1.61313384514400      0.02219623902389      2.91427224695353
  C   1.34372606757548      2.71417674744938     -0.28279882698728
  C   1.40860080140618      2.08860902306364     -1.68459496709500
  C   0.02924758920720      2.30967504243009      0.40685265901091
  C   1.26605672090213      4.23907092845363     -0.54200008170355
  F   2.45104702618845      4.77083828203161     -0.85851696450798
  F   0.44030235158353      4.52204790407092     -1.57347841917489
  F   0.77270132162978      4.94781613313119      0.48517270767658
  H   3.30666876630570     -1.18261045169755     -1.60660521284843
  H   4.54637415736101     -0.48315334285553     -0.55917933136180
  H   3.58724136812424      0.57552739101282     -1.59847540575467
  H   1.53706893161043     -0.24603424633380     -0.18630090351423
  H   2.32015414435058     -1.11575394411035      1.84486537648918
  H   3.87980044754089      1.03581198151639      1.22754281099746
  H   2.37721221486858      4.22982895408775      1.65096904119945
  H   3.83789807237799      3.28736902462911      1.89555348521334
  H   1.44742313602044      1.00920247388719     -1.62145540511638
  H   2.29557635905411      2.44012748208393     -2.21213028208506
  H   0.52275497094328      2.35423532962785     -2.25816260265024
  H   0.00439968765794      1.22929384772074      0.54351269200954
  H   -0.82118507464753      2.60278481855920     -0.21415850354921
  H   -0.07017302354079      2.77059759058088      1.38766322399204
