32
Coordinates from ORCA-job 21882optt
  C   0.76948036256940     -0.02245373322359      0.10754380873096
  C   2.23917788035989      0.40191421188739      0.01229917580176
  C   2.97467048304476      0.21592452676274      1.31869755510992
  C   3.35351728542101      1.40013532006146      1.97397864790394
  C   3.80125574613133      1.41768093247580      3.27927472673001
  C   3.83232656892567      0.22009284137098      3.99503858081244
  C   3.49141881524631     -1.00195407408512      3.39220804194212
  C   3.13334284911029     -1.05307857986314      1.98473711174281
  C   2.97723581532921     -2.34237419882194      1.39510520702824
  C   2.99630396243228     -3.51147941842364      2.19903627842776
  C   3.23841821063848     -3.39787889956961      3.54289351927369
  F   3.23684237262972     -4.53019210723557      4.30475424926212
  C   3.50909274988696     -2.19774334731647      4.16055430697375
  C   3.00732127920392     -2.53406075166323     -0.11594558391577
  C   4.39132237292297     -2.15021565047455     -0.67546353174349
  C   2.67718226685406     -3.89294556199761     -0.55922199113477
  C   2.42086911504934     -4.98902235160063     -0.97617353513319
  H   0.26704490408226      0.03486245997035     -0.86255097364096
  H   0.24364087175618      0.62627059287428      0.81053590086974
  H   0.68128430057709     -1.04310149185705      0.48454984462740
  H   2.26995420216469      1.46635880249448     -0.23409090899275
  H   2.71196201750988     -0.09759202602665     -0.83959489124025
  H   3.25882795556879      2.33709862050793      1.43354409546147
  H   4.09096612393243      2.35070789171054      3.74846330752655
  H   4.13129894325612      0.20964616245247      5.03732960151545
  H   2.83918144332910     -4.48958894343725      1.76776728370434
  H   3.73206988147729     -2.16507163041125      5.21893407982437
  H   2.26231783276000     -1.90772078647557     -0.60881582681917
  H   5.14069776264731     -2.84084334501883     -0.28767463562373
  H   4.64605674235113     -1.14317746997947     -0.34444803068327
  H   4.40124340282903     -2.18945635096935     -1.76770823785402
  H   2.18567548000303     -5.96474164411791     -1.32455717648750
