29
Coordinates from ORCA-job 21890optt
  C   2.88258197358128      0.95560405911549     -0.73427420173945
  C   2.66536353372516     -0.04169435923285      0.39338677425034
  C   3.11209554875254     -1.48010799601306      0.02936287551896
  C   2.74790058883044     -2.44126164220418      1.17198586471595
  N   2.58149853152664     -1.95249426892767     -1.25000396285207
  C   1.23942067566108     -1.82215359641752     -1.56318299746894
  N   0.33003608606339     -1.72894109608473     -0.60401246174271
  C   -0.92699259278010     -1.79170484773297     -0.94931147073345
  F   -1.81415112264536     -1.66049012434122      0.06788062230446
  C   -1.41306389986323     -1.99432748446137     -2.22871478983461
  C   -0.50762452318317     -2.08723814349388     -3.29577946024598
  O   -0.76247791308311     -2.27319823056552     -4.48338121704177
  N   0.90620871889057     -1.90578820255470     -2.92026094719995
  C   1.80718402315099     -1.80324256117752     -3.95109469466034
  O   3.01560796590839     -1.52228792361626     -3.82821863035923
  C   4.58019761332913     -1.48047346132811     -0.11384549720569
  C   5.77490912244776     -1.46641073839264     -0.20962616541927
  H   2.59028950319014      1.95913783118311     -0.42165219696372
  H   2.28821926979273      0.68732618814094     -1.60884655225219
  H   3.93042792894222      0.98229877296300     -1.03984202385371
  H   1.61040429286317     -0.08753667376295      0.66118679070721
  H   3.22667960453400      0.25712593598246      1.28276387526428
  H   1.66795717386783     -2.45329404577771      1.29834226941082
  H   3.22693682425760     -2.11362177538607      2.09631566372832
  H   3.09506461821504     -3.44464856755262      0.92763947827516
  H   3.16841178091148     -1.75671160561237     -2.06270119929778
  H   -2.46714574106894     -2.07966443129619     -2.43763915424945
  H   1.33076568594461     -1.97678899121404     -4.91297291463355
  H   6.83229472823762     -1.45841202023881     -0.31450367642159
