24
Coordinates from ORCA-job 21900optt
  C   1.11771423958477     -0.04136535383635     -0.38799844014031
  C   2.58211361871412      0.04986620636376     -0.07770968793725
  N   3.18785121404956     -1.11360566779586     -0.00863485495698
  N   4.54649912860074     -1.12089874877729      0.29682472428198
  C   5.29980358015925      0.02257836137557      0.06937524289804
  F   6.63078105219067     -0.19163211686658      0.05466983575616
  C   4.70382842810596      1.21685934226080     -0.01434350327793
  N   5.19968710221631      2.49032518295719     -0.14023943726905
  C   4.15214214795764      3.40966306215958     -0.18458845864610
  N   4.42327027834812      4.67026131813960     -0.33027649428009
  S   3.13225019592547      5.71472298466385     -0.40454216850230
  C   1.65253121412482      4.84505324199943     -0.05651735508697
  N   0.53401987630798      5.46829609287717      0.00489363645763
  C   1.67572735803448      3.35518649585386      0.17455760547355
  N   0.59190421561275      2.76433571755983      0.56164190591334
  C   2.92247518002922      2.68616154840200     -0.03345426618712
  C   3.26241054665017      1.29344999844217      0.03227338326780
  H   0.86631415175619     -1.08018822001226     -0.59493057991332
  H   0.87575138676882      0.58592985056788     -1.24657665156326
  H   0.52753980391608      0.35192030176276      0.43658541423207
  H   4.97588314152886     -1.96902330571055     -0.04553468416808
  H   6.16045346561855      2.75468788146475     -0.25572511737559
  H   0.65313926852959      6.46798975172077     -0.15374113520027
  H   -0.14209059473018      3.46942607442792      0.61999108622405
