31
Coordinates from ORCA-job 21902optt
  C   0.97997443272287      0.09710459783854      0.16890017734638
  C   2.47387903799960     -0.00566022712422      0.06286062416698
  C   3.11201554578044     -1.25190548846294     -0.16495769661025
  C   2.40791262436640     -2.53859967914311     -0.45277732224254
  C   3.07277303738609     -3.46811771360846      0.52227022367094
  O   2.48219282200694     -4.21144013178526      1.32390620700067
  C   4.57939087461113     -3.50714935736642      0.43804731304143
  O   5.13068530970865     -2.49125268150961     -0.40655393046720
  C   4.51535569060022     -1.27125765455832     -0.22638723399332
  C   5.29245913395507     -0.14932453888944     -0.05661778639025
  N   6.71473112283453     -0.26746616641182     -0.02775028019687
  C   4.68005243784857      1.10824741760819      0.17509435358598
  C   5.46287854965717      2.38866751293702      0.28495738659048
  C   6.12244257592074      2.64032597271637      1.64305181311284
  O   7.26372365786670      1.84226024130079      1.88259829649374
  C   3.28823365510744      1.09631279776470      0.23273530309954
  F   2.67922433422738      2.29699152699493      0.46348532446116
  H   0.60788652788904     -0.47908102395061      1.02327867268517
  H   0.48747667717585     -0.30221547702116     -0.72117459322443
  H   0.66764832158139      1.13157466450409      0.29582321878579
  H   2.49560625129264     -2.86087431359120     -1.51747622841134
  H   1.34796807873107     -2.48775282263554     -0.20878230713837
  H   4.91021865512058     -4.45693055039534     -0.00155986405173
  H   5.00218991094328     -3.43800735245605      1.44989325895474
  H   6.96785996883016     -1.22795643516770     -0.22937073246055
  H   7.15443223853897      0.33398407890585     -0.71603807266674
  H   4.79046637685507      3.22544077895528      0.08465486198918
  H   6.25133228269421      2.43277734522838     -0.47800868093972
  H   5.37148171534771      2.48800323168914      2.42777729648921
  H   6.45969507358398      3.68026744994999      1.69590264630567
  H   7.12081307881598      0.96603399768394      1.48321775101337
