26
Coordinates from ORCA-job 21901optt
  C   2.67476326430643     -1.41966846763972      2.03399080917988
  C   3.94438503528003     -0.56043882029866      2.10469172950796
  C   5.07131380063542     -1.26497992996360      1.33597131978842
  N   3.77084845826521      0.73580156224612      1.49766519491178
  C   3.14650365376266      1.85792770694230      1.95245643041202
  C   2.31154561723354      1.97487485427915      3.01477258352470
  F   1.98506873659671      0.88693216101656      3.77617425504024
  C   1.67905413500364      3.20049750469137      3.40111377511519
  N   0.85661723749541      3.32199178273366      4.37465797479654
  C   2.02187549695844      4.43948365075694      2.58569444658007
  N   1.54142641009519      5.56518098970694      2.91733041232532
  C   2.93802751419528      4.33320923212108      1.39173175458182
  O   3.19838411147932      5.33444631556793      0.71947562846344
  C   3.49739350322288      3.03274955589057      1.08757152905415
  O   4.28186937606614      2.81089403901753      0.13607304375566
  C   4.40288659748150     -0.46062211629075      3.51544891635587
  N   4.81166582898316     -0.44809228831934      4.58603300865785
  H   2.43013177723300     -1.56699012265009      0.98169784672889
  H   1.84254651049239     -0.92888278545042      2.52846444449300
  H   2.84806523563351     -2.38938485639889      2.50298392821961
  H   4.77798966826624     -1.34762283997836      0.28874080203379
  H   5.24056948150741     -2.26116752598697      1.74158678362919
  H   5.99468039393481     -0.69073315497311      1.40382297247585
  H   4.39750180222458      1.00288658723655      0.73663076891897
  H   0.72755494174024      2.42472493434125      4.83821426609425
  H   0.95333141190678      5.41998203140191      3.74400537535550
