32
Coordinates from ORCA-job 21913optt
  C   1.29824734067502     -0.49722937812733      0.20609388567878
  C   2.72309286502575     -0.00846866456696     -0.00914209426457
  O   2.88984956186683      1.31334027329165      0.50269388138646
  C   2.58604971331843      2.19848966706497     -0.56441627243113
  C   3.21376435764587      1.57182673702149     -1.82439699984739
  C   4.74218682640621      1.84958387794596     -1.89011448656114
  C   5.42927092850913      0.62704710420553     -1.27888587052257
  C   4.52503860441707     -0.50786705516921     -1.75120342981764
  C   3.12049242125548      0.04188286583123     -1.50045088276777
  C   2.52752981862697      2.00515132218991     -3.09245742375613
  C   1.14690420372000      1.85246912553141     -3.32595620088248
  F   0.54252605628703      0.82763262118679     -2.65718443551369
  C   0.37386784213328      2.57291317592188     -4.24398315881056
  O   -0.84104744597192      2.39070207536852     -4.52503112190143
  C   1.18044570746499      3.62501053020311     -4.90260757888194
  C   2.44106316092168      3.87500897057261     -4.54673881655800
  O   3.10502315556647      3.20557091764666     -3.57658829288908
  H   1.03894936372083     -0.45324578463862      1.26506244814863
  H   1.20009888678784     -1.52893853924107     -0.13884680166651
  H   0.59570930597991      0.11064252864055     -0.36403164033156
  H   3.41433878493578     -0.63862159202877      0.55995393520064
  H   2.99783007766366      3.17826014104289     -0.32206410729522
  H   1.50224981071299      2.29069722507959     -0.69678084514536
  H   5.00625005745318      2.78582596762071     -1.39681397008343
  H   5.03006396153454      1.93865654041058     -2.93839859789254
  H   5.41464675707810      0.68566423188940     -0.18720007268145
  H   6.46716839866558      0.51837460967984     -1.60005582243902
  H   4.70270066650505     -1.46111381083499     -1.24709685233394
  H   4.66403196835516     -0.66020004808012     -2.82556631454980
  H   2.37142773625063     -0.45188929978251     -2.11382790026547
  H   0.71124787790094      4.21538555504498     -5.67854546245282
  H   3.04798122858741      4.66643810907926     -4.96941869787183
