27
Coordinates from ORCA-job 21916optt
  C   1.06070395521999      0.02805274024286      0.09596586321641
  C   2.55167782870747     -0.02908062284573      0.03970465933648
  C   3.36416475451311      1.04641599532850     -0.18213596586439
  F   2.77161956342922      2.23847274389630     -0.41909702118862
  N   4.67453410675410      1.09992474012395     -0.17156252970237
  C   5.32278382404179     -0.04818010919692      0.04192096511723
  N   4.61227097737328     -1.26153457227976      0.12921440294848
  C   5.29395180455435     -2.54689682846181      0.15881930259289
  C   6.73472920428597     -2.46071838743689     -0.29942739876905
  C   7.45351523160592     -3.77031030316854     -0.15318840409929
  O   6.95266394252097     -4.79421866823719      0.23707298058982
  C   7.44556332874562     -1.36031726424827      0.48451543433616
  O   8.79303044143320     -1.23303531741236      0.11688736093744
  C   6.73498402106418     -0.03891214482714      0.19581889342567
  O   7.47245222179187      0.96635924687217      0.06287743468334
  C   3.21227967218526     -1.29181239031615      0.24012026467942
  N   2.51848899247366     -2.35818477437472      0.47548064449676
  H   0.70889871839891      1.04440644592725     -0.07184625516281
  H   0.69696329110388     -0.32298473374419      1.06499507191817
  H   0.61700239675497     -0.63416219256632     -0.65194996656344
  H   4.75049713593700     -3.23988803044769     -0.48657052696014
  H   5.26517013860956     -2.97155802039212      1.16896695308915
  H   6.79928035974718     -2.17736131368252     -1.35754096820130
  H   8.52289808197383     -3.73417127252257     -0.42690380144469
  H   7.37599013097100     -1.60238350549718      1.55671863260497
  H   8.87990735241065     -0.26515571003284     -0.01263432685349
  H   3.09497852339301     -3.17576575070011      0.63077830083721
