28
Coordinates from ORCA-job 21924optt
  C   1.08007758154035      0.60719099224616     -0.33054744983253
  C   2.51869751448438      0.23463389098153      0.03158243133396
  C   2.97283184431909     -1.05150576449056     -0.61735011983924
  C   3.76183774923650     -1.07320962658440     -1.75020089074731
  N   4.25276724569248     -2.16941724132435     -2.41057705552974
  C   3.87109502526481     -3.35995131606600     -1.85100120944827
  C   3.08433015771112     -3.43591572882486     -0.75280362153941
  F   2.75934529664873     -4.66362893862637     -0.25449692545050
  C   2.59399270222148     -2.29896355405708     -0.05228187229099
  C   1.59232816333289     -2.48100868126395      1.05514896589925
  C   0.22535920858969     -2.76041627294115      0.57967826775114
  C   -0.87452086604637     -2.98633537123756      0.15357456919244
  S   4.28229098475119      0.45033194432764     -2.49985797220382
  C   4.96764293551154     -0.06757051644960     -4.05301026868413
  O   3.13751169920769      1.29245089986492     -2.80250023997050
  O   5.36131212247115      1.08378909248441     -1.76222179604100
  H   0.76835760104402      1.50754427262287      0.20480516867325
  H   0.38441265875284     -0.19677423961084     -0.08556187207349
  H   1.01764428790341      0.80404316395937     -1.40032334132658
  H   2.61130547170860      0.12405630150114      1.11601520088272
  H   3.17947094342622      1.05631411784196     -0.24080766378606
  H   4.23167005300480     -4.27195603077455     -2.31436532691580
  H   1.55121718919628     -1.59328032853270      1.68936303984261
  H   1.88838322911953     -3.31391045300248      1.70011219269068
  H   -1.84022133909760     -3.18129632136559     -0.24448122508765
  H   4.20793983029085     -0.60327590324112     -4.61381789315791
  H   5.82205622767995     -0.70899442851789     -3.86586334365438
  H   5.24986448203434      0.86705604108109     -4.53620974868673
