30
Coordinates from ORCA-job 21921optt
  C   1.04987731700454     -0.19526281820354      0.26962345695009
  C   2.57078813108207     -0.08456408812211      0.08927440657572
  N   3.20331573768925     -1.20477598577308      0.83319129309552
  C   2.93822959242317     -0.31068829449456     -1.41251631380079
  O   2.01084808652794      0.25048652939986     -2.29066083795028
  C   4.36561194520615      0.15551875555631     -1.69550029771527
  N   4.88142635387157     -0.44938513087946     -2.92733071737497
  C   3.06333345355942      1.26926334860009      0.61195778746211
  C   4.11631805489159      1.44469612546458      1.44478871275256
  N   5.07680702940509      0.52603742926535      1.83822761940515
  O   4.45498722528975      2.64958263577339      1.97061990901682
  C   3.72409068141374      3.78101077653661      1.68862936975564
  F   3.53861946127070      4.47651906416244      2.86350542623420
  C   2.66132676375528      3.66074851418768      0.78572173116464
  F   2.06298044004747      4.82384533210109      0.41664985040120
  C   2.38350878787945      2.49437266685041      0.08902407329724
  O   1.63802543167849      2.44524179677134     -0.93962259772281
  H   0.70120882916903     -1.13359244893206     -0.17193848602731
  H   0.52227245425010      0.62836679988591     -0.20106344209728
  H   0.82031301770342     -0.19926244186744      1.33876535394728
  H   2.85742697689254     -2.06981734872797      0.43006959719667
  H   2.84801264776864     -1.18357144619313      1.78635464196700
  H   2.89917198453663     -1.39893910546884     -1.58054069196985
  H   1.80876877184629      1.15726798187663     -1.92454043698296
  H   4.99203789691560     -0.05205698480634     -0.82019434150507
  H   4.33350526499953      1.23876936322304     -1.82922397754755
  H   5.03744341561045     -1.44089942862597     -2.78422504467721
  H   5.77923678471365     -0.04546310826866     -3.16480118106533
  H   4.83755911534938     -0.42893672280867      1.60895346984909
  H   5.41894834724897      0.68648823351709      2.77380166736576
