30
Coordinates from ORCA-job 21930optt
  C   2.79854487316504     -0.09135950079575     -1.64549012064803
  C   2.03556678762286     -0.35652743897844     -0.35251563824118
  C   2.92212071292474     -0.89538137088745      0.78501029321620
  C   2.10878245817858     -1.26684621608811      2.03987855941633
  C   1.30595991254399     -0.11992530977938      2.64135104188406
  O   0.56197616539501     -0.58961524111970      3.74990887283995
  N   1.18669168740630     -2.35923456026208      1.81871154971625
  C   1.66961262629500     -3.38240495103673      1.14937513543903
  N   0.79889997105122     -4.48202602879187      0.99991108685670
  C   2.94664754208972     -3.39060101437364      0.52392143740425
  C   3.64998601136605     -4.49913409921565     -0.02593974041220
  F   3.10154540135666     -5.74355706232679      0.05141449961087
  C   4.88361009792158     -4.39586864258243     -0.59352412987398
  C   5.45037932435009     -3.11347182265680     -0.61726639637082
  F   6.67976752840800     -2.96018400094345     -1.18032437967218
  N   4.85788108866112     -2.02782415478347     -0.17342216469221
  C   3.65563474434651     -2.13711530183387      0.36014987111956
  H   2.14601093611452      0.36568175061893     -2.39321617443059
  H   3.20509183548717     -1.01334254247730     -2.06053049520382
  H   3.64331048235264      0.57878413138885     -1.47011425181152
  H   1.22806366283890     -1.07241583607119     -0.52665638939913
  H   1.56544409243965      0.57308183156323     -0.02054227371481
  H   3.66952853290594     -0.13455790232172      1.03498906479859
  H   2.84530788203884     -1.56551511174536      2.80732245381737
  H   0.62382146696655      0.29382446903251      1.89025621814540
  H   1.96853115292206      0.67727701603072      2.99014378780135
  H   0.29690793597445     -1.48133332573758      3.46521090100393
  H   0.12841805364217     -4.49491004808261      1.75551963869852
  H   1.26300323866527     -5.36798644073667      0.88127019146405
  H   5.39695379456933     -5.26251127500616     -0.98380244876190
