28
Coordinates from ORCA-job 21933optt
  C   1.19797355049793     -0.59284473245851      0.86114909663406
  C   2.34149501523418     -0.17872951604695     -0.05287363505338
  C   3.55195997767525      0.28619360844404      0.76381018925508
  O   3.29921652520600      1.48298613260726      1.50035549490082
  C   2.75189014631275     -1.25138352793350     -1.01939769787810
  N   2.36226068151280     -2.54592845857046     -0.84685502734072
  C   2.74355059837657     -3.45028575120360     -1.68326307932332
  F   2.30203753044541     -4.71871815725840     -1.43283581030983
  C   3.56072135413446     -3.30742982569064     -2.82683747197446
  C   4.01498337729597     -4.41979635516453     -3.71865006168620
  C   3.39552998736425     -4.07153186045696     -5.03892043013342
  O   3.97004822449953     -3.43469633240986     -5.90396200363305
  C   3.94397231728577     -1.96524519432340     -3.01954742014736
  C   3.56718289941756     -0.94211310146042     -2.13690008358063
  N   4.08975584525215      0.22744147184952     -2.58560487467023
  N   4.76003276355230      0.00936652205369     -3.69178782129027
  N   4.67887663556466     -1.33050017025297     -3.94612138509133
  H   0.96388157040154      0.21268986643910      1.55894205776155
  H   1.47576714820539     -1.48369133027919      1.42605609691018
  H   0.30722962500769     -0.84079036800001      0.28310966974352
  H   2.03153123392094      0.69481573112326     -0.64804504215388
  H   4.40639379059299      0.42580053620331      0.09656069185420
  H   3.80439496246815     -0.47593385941141      1.50403660964118
  H   3.13526224530859      2.17879399751369      0.85665594687758
  H   3.64126100563191     -5.37235375448282     -3.34457217400100
  H   5.10574541708145     -4.45518459150122     -3.82517857217162
  H   2.32277212425580     -4.31665618844074     -5.14094385162069
  H   5.00327344749795     -1.70827479088821     -4.82337941151864
