26
Coordinates from ORCA-job 21934optt
  C   1.13667471627188      1.19859989834543      0.33551758279012
  C   2.52972925474542      0.88121216193833     -0.12338497210610
  N   3.42010656122675      0.42311158342490      0.75914812012911
  C   4.64616833637908      0.12100301470591      0.36570206536591
  C   5.11935086427409      0.25885384138592     -0.95764529427663
  C   4.19009172514736      0.76134004021622     -1.87835799309496
  C   2.92028732520076      1.05169083249956     -1.44126380275034
  F   2.01199431909987      1.53502717700075     -2.32738923196051
  N   6.42185476826127      0.07269344008226     -1.33636063468889
  C   7.19270223300567     -0.88852459265556     -0.87807246683480
  N   8.54521625588852     -0.62904805290543     -1.02166642391667
  C   9.57765107631596     -1.48292655489364     -0.64190065271271
  C   9.25682178216872     -2.69315840289050     -0.07046239179641
  C   7.92768913989334     -3.05224919686623      0.09310992387233
  C   6.87471897904491     -2.16375348360611     -0.33337722022308
  C   5.55054818564047     -2.64563685088860     -0.32493396783824
  N   4.49042133636554     -3.10927778555909     -0.30387191880296
  H   1.10319909022350      1.12267015050698      1.42057096281240
  H   0.41085548622021      0.49886761001271     -0.08600626948049
  H   0.83131834820168      2.20242510763138      0.03354582245142
  H   5.32572971866825     -0.24726082939319      1.12654838377603
  H   4.47026502029664      0.91332996327471     -2.91211557824076
  H   8.74170357355609      0.28464892030962     -1.39369760476111
  H   10.58142364615811     -1.12692999092697     -0.81020409863918
  H   10.05246429104722     -3.35710405955257      0.24032500474735
  H   7.65601396669847     -4.00760394119677      0.51924265617917
