23
Coordinates from ORCA-job 21946optt
  C   1.53308690953571      1.08306150325127      0.72413536237357
  C   2.31107277995952      0.02511722225550     -0.04000879751169
  O   2.31312839233964     -1.13304807667689      0.45512472050818
  C   3.00238239951888      0.36441190848247     -1.24382084235758
  C   3.11871208999639      1.67830019144217     -1.77334671261667
  F   2.49434062642778      2.72011836073397     -1.17631538294418
  C   3.87609225698749      1.99982597397399     -2.88094481833555
  C   4.20601166242072      3.17192442827355     -3.62056063638682
  C   5.06810503657738      2.71159017296912     -4.63582502862048
  N   5.28747664921903      1.41306826035184     -4.59055420643700
  N   4.55835663337488      0.99375825295527     -3.52488562941145
  C   4.45478647685997     -0.29965977500156     -3.08590490489686
  F   5.12220588939356     -1.19743184497537     -3.81850635079671
  C   3.70882439764932     -0.65734924680757     -2.01613515404089
  N   3.57091926323783     -2.00420744891906     -1.70789965375693
  C   3.79607902761626      4.50141197064920     -3.41598052533312
  N   3.48817904848733      5.60616750788836     -3.28804070069328
  H   1.04860280801142      0.57903487351616      1.55775088696959
  H   0.78156541300123      1.57003686665574      0.10246681548745
  H   2.18823641927299      1.86729242389609      1.10680101788779
  H   5.53671266385921      3.30488153054467     -5.40541160587064
  H   4.34385942331849     -2.58171033287764     -1.99614581458699
  H   3.23226373293492     -2.13359472258130     -0.75699203862971
