31
Coordinates from ORCA-job 21952optt
  C   0.96798544375793      0.17223974646882      0.34936237644327
  C   2.46773307569556      0.10915446066173      0.04005899911000
  C   3.25473183673369     -0.16613258768156      1.32738034248744
  C   2.80874642048258     -0.88647280461531     -1.03497647214688
  C   3.44588024950992     -0.64800771924289     -2.27790137591412
  C   3.65450261250491     -1.93095903508910     -2.87853374163143
  N   3.16740782855706     -2.92147634644675     -2.07312566659786
  C   2.67793195108046     -2.28070128188758     -0.99486811098982
  N   2.13981560369771     -3.04735271132221      0.07959680950095
  C   4.28044726488904     -2.07277667868036     -4.11385493008080
  C   4.53645860772766     -3.35643402760324     -4.80489064244526
  N   4.70888732513422     -0.89975310165626     -4.80198402244166
  C   4.48713055013511      0.35550007445415     -4.22607805363863
  N   4.92347180983531      1.43837430381010     -5.02760256858383
  C   3.91320115464182      0.47254443880720     -3.01358185955682
  F   3.82363327046170      1.73380727218097     -2.48167745776578
  H   0.74675508185851      0.95845780997720      1.07877795328429
  H   0.62133680615959     -0.77322779676233      0.77471280372696
  H   0.39413366195744      0.36511162341808     -0.55776278365988
  H   2.76296137533988      1.09469130935663     -0.32789127522584
  H   3.02647571194467     -1.16920302208546      1.69342139718349
  H   3.01012521768833      0.55960010169607      2.11035159278521
  H   4.32666373541035     -0.11913424344607      1.13047979012854
  H   2.16880352640191     -4.01924068847692     -0.20697411216835
  H   1.17301583897106     -2.80446127574439      0.26020706215970
  H   4.13625304774961     -4.16814317963115     -4.19830620097436
  H   5.60764370646861     -3.53808367723981     -4.97440177151743
  H   4.05388356093743     -3.39934841119983     -5.79656262138464
  H   4.48071068336671     -0.89769275216898     -5.79705637652047
  H   5.92366101961226      1.36858528312674     -5.19931125310766
  H   4.73561202128883      2.31353491702254     -4.55600783045825
