25
Coordinates from ORCA-job 21957optt
  C   1.01843565956160      0.11208508211591     -0.16184320928890
  C   2.53151723103312      0.05394687010496      0.01531910108555
  N   3.24157069090825      0.17037149076483     -1.23974053308387
  C   3.45329127130321     -0.94426880321389     -2.02540721649023
  C   3.80124793459727     -0.79940148746135     -3.30971681964007
  F   4.07921128953592     -1.89884136591096     -4.03699317572730
  C   3.89883163388949      0.50329962642776     -3.91077578842283
  C   4.26701328899561      0.77577699090745     -5.22331071887454
  F   4.61371375904258     -0.24691460686017     -6.05344724960894
  C   4.29194640868181      2.05442273726409     -5.71941450227230
  C   3.93074729118252      3.14524607958628     -4.91198903091607
  C   3.97379805817063      4.45196909509685     -5.46866049436272
  C   4.02741805369808      5.54663506232899     -5.97070482118752
  C   3.51715428179068      2.98869221707384     -3.54153580416752
  O   3.17451401975475      3.92169672554825     -2.80491398013727
  C   3.53626456763581      1.58188565539873     -3.04167203762493
  N   3.18672122742373      1.43341403745392     -1.76801332446780
  H   0.51126695750227      0.07504784398844      0.80435489540530
  H   0.66862953014706     -0.72354005838683     -0.77129015233431
  H   0.75620341408633      1.04265218003368     -0.66503103827434
  H   2.83734961715699     -0.88107041838382      0.49052786110092
  H   2.86405245011164      0.88297868472096      0.64099913968523
  H   3.37651200670816     -1.91327463662857     -1.55248950992187
  H   4.59280476434806      2.21368465389021     -6.74668998303323
  H   4.06878459273436      6.51950634414042     -6.39356160744040
