29
Coordinates from ORCA-job 21955optt
  C   0.82401656435859      0.11795816585168      0.13650190182932
  C   2.33359195658181     -0.00866462389144     -0.09311945689575
  C   3.00369191414368     -0.77592460592203      1.01161674617655
  N   2.61369688201598     -2.09990014627387      1.10186365244360
  C   3.12860995504011     -2.75389239027781      2.12825431149503
  C   3.99275406259829     -2.25898084685987      3.13411212711575
  C   4.18597372763037     -3.35279279262793      3.98311201044671
  O   4.97682774761203     -3.40879607807224      5.11062989980878
  C   4.61771156481186     -2.70620633343648      6.21895186986229
  C   3.30532054625881     -1.98755829198850      6.19060462221704
  N   5.37534186646404     -2.68223687889051      7.23151688249120
  N   3.55978262734589     -4.45392358977989      3.59576553207793
  N   2.92031575757900     -4.06158585455856      2.45142496716972
  C   4.32543606707810     -0.88548875997250      3.03291524502893
  F   5.40563694059042     -0.40289623175142      3.73980024245836
  C   3.87027609875822     -0.17318744458150      1.91871967291986
  N   4.26756354513938      1.19077820409917      1.79145392419061
  H   0.32668504739808      0.60879748747077     -0.70460938869022
  H   0.62695287512048      0.69696088741351      1.04067733889975
  H   0.39437561181010     -0.87495291818917      0.27065481929363
  H   2.76268225685117      0.98939365386970     -0.19625676255876
  H   2.49879305450011     -0.53566866785984     -1.03947459569165
  H   2.51307137610622     -2.66107475351288      5.86115781734263
  H   3.34339685008596     -1.15980817459874      5.47853587760169
  H   3.10173896727791     -1.61103237069023      7.18862307109888
  H   6.21581782179542     -3.22451361910431      7.03269810971754
  H   2.36833474812561     -4.71921281154683      1.93403965965639
  H   5.03335198065459      1.38339247981068      2.42400870262586
  H   4.56625158626764      1.40101730587110      0.84882119986821
