31
Coordinates from ORCA-job 21963optt
  C   1.52252841400505      0.21800863239090      3.28708079174898
  C   2.31138024968949     -0.56990344413695      2.25202163499810
  C   1.37739261544824     -1.12476806739117      1.17869352096227
  O   3.25753852741669      0.31089615155841      1.67818302814903
  C   4.57549298177491     -0.16317799149501      1.49651351069056
  C   4.59467684536297     -1.33303422592999      0.50945543098497
  C   5.40396257841357      1.04088118895170      0.92963696010354
  O   4.89458158910046      2.17807373780314      0.90386719240387
  C   6.74681191753954      0.79774669825158      0.48636945053275
  O   7.38586817359226     -0.28760888868784      0.48284668481639
  C   5.20641752008416     -0.52465054253981      2.83780728894865
  C   6.28707098822483     -1.40427201504412      2.94206767635063
  C   6.84040703152023     -1.64043991063261      4.18884544593482
  C   6.31925042733847     -1.01431878782030      5.31215398184671
  C   5.24426475110712     -0.17594892387756      5.07788284826292
  F   4.68196349729452      0.44473335111335      6.13593469645106
  N   4.70016894459545      0.07371653686548      3.92583351439685
  H   0.76829718720267     -0.41423472313201      3.76235944863283
  H   1.02013664597182      1.05341660749776      2.79518415099854
  H   2.19933294430069      0.61460968194188      4.04059666508087
  H   2.81948529630853     -1.40282681080003      2.75324416462503
  H   0.89534324406681     -0.29277900542251      0.66184308608321
  H   0.60305685099771     -1.74912396870916      1.63173730531743
  H   1.91616084830003     -1.71850092549118      0.44222881465924
  H   4.04560265587229     -1.02274660223941     -0.38027349848291
  H   4.11631073513423     -2.22012457074882      0.93521712648171
  H   5.61536959634055     -1.57021059594173      0.22205129484911
  H   7.22331044301745      1.72267568359004      0.11639297034027
  H   6.71074153267543     -1.83943157286262      2.05155168286616
  H   7.68613805285529     -2.31035668629833      4.28613850099332
  H   6.70793691444842     -1.15930001076308      6.30953462997300
