30
Coordinates from ORCA-job 21975optt
  C   1.11912004348278     -0.27833595614912     -0.43380449660657
  C   2.42548303202638     -0.36059965316286      0.35063835810918
  C   2.41536419570291      0.44107156313695      1.60981018950878
  N   3.28048274109847      0.19568637521599      2.61474905772040
  C   3.47793288236301      1.26161708785808      3.39795222970188
  C   2.87581833556338      2.48473078346676      2.96429060310620
  S   2.03551552378112      2.21412622452936      1.45768722997153
  C   2.99729901092614      3.66516126578895      3.67295895522161
  N   2.38810097184389      4.86620964403108      3.24906135631385
  C   3.22629246039498      6.03114642890680      3.17611229265163
  C   2.65587693508081      7.10290496035952      2.30411075966209
  O   1.65655679335805      7.00707161782003      1.64598482588141
  C   3.74608204077747      3.62067162318787      4.85647607794164
  F   3.80711800458520      4.75492287885123      5.63167790695182
  C   4.36268702305722      2.46725838419437      5.32190209584289
  C   5.13754345813337      2.51646358228815      6.61092160300183
  C   4.23071528125566      1.29226950147139      4.59779607581861
  H   1.15757207226639     -0.88461230281544     -1.34220863374593
  H   0.91195748505910      0.75294621030219     -0.73034136501862
  H   0.28406719091161     -0.61697237116105      0.18265245036988
  H   3.25467647513662     -0.04927151933034     -0.31150300642969
  H   2.63220540504119     -1.39385170061998      0.63903721729628
  H   1.85312584395510      4.74488887515893      2.39757469245433
  H   4.23680418312541      5.82131864163600      2.78105465841359
  H   3.39198614245856      6.47251577353376      4.16519997170516
  H   3.25011360904755      8.03951338354095      2.29148345355119
  H   5.93778450278360      3.25828517983886      6.56447592492846
  H   5.57954548811141      1.54249398451680      6.81906973137633
  H   4.49583459985814      2.79212419148666      7.45088141546049
  H   4.70833826881420      0.38324534211787      4.94229836883951
