32
Coordinates from ORCA-job 21985optt
  C   1.05875506373361      0.39142377173852     -0.15322779052645
  C   2.53121445123374      0.01943083482625      0.00823327915715
  C   2.91483226196536     -0.04902997101358      1.49759869179722
  C   1.96262016936331     -0.86745473637696      2.33696923359166
  C   1.87068616946966     -2.22485919325729      2.11336617579028
  C   2.68030944131789     -2.85721065022792      1.01205496139164
  O   2.29803600787571     -2.43574100244291     -0.29231450728758
  C   2.92385405407537     -1.25226534642063     -0.75701382073955
  C   2.60646007095056     -1.17026471852599     -2.23968121368134
  C   0.99124623390567     -3.02297290547817      2.88200861634250
  N   0.84729255202616     -4.43167166079084      2.68226644560308
  C   0.30717938915706     -2.33181344760430      3.87934413275215
  F   -0.49729770482145     -3.09270361316171      4.68765246805709
  N   0.34521929108661     -1.07672293383768      4.13931049765939
  C   1.13189831918609     -0.26122830346187      3.33874746777533
  C   1.00383372825685      1.13475094599789      3.59493174286666
  O   1.54215666648975      2.09796751202641      2.99528128739450
  H   0.81182519798805      1.20247428378203      0.53532780286878
  H   0.42477002600258     -0.46236950591079      0.09273400977146
  H   0.83027075475069      0.71053770174090     -1.17237915313737
  H   3.14068937474180      0.81636856037763     -0.43678947882148
  H   2.93826884950886      0.96263909590296      1.89153962141790
  H   3.92727566496759     -0.46577713004023      1.57938126706258
  H   2.55019350187638     -3.93765166604290      1.03347025378706
  H   3.74792484050393     -2.64512932705155      1.15735128739547
  H   4.01233498560974     -1.37600428029766     -0.63338228144324
  H   1.52626016417566     -1.16790469855724     -2.38784169256829
  H   3.02144942850609     -2.03200459976240     -2.76342355878625
  H   3.01969087630025     -0.25694541283338     -2.67168816151010
  H   0.34285742102373     -4.63208035121098      1.82354843744312
  H   0.30562942126150     -4.82190344694556      3.44244264199116
  H   0.31426332751115      1.33511619485997      4.43418133658545
