32
Coordinates from ORCA-job 21981optt
  C   0.74472324712677      0.69181699518134     -0.20020176510780
  C   2.19881949895818      0.27865909605334      0.05495351332403
  C   2.73857399033133     -0.64598721395767     -0.99544185995272
  C   3.38623086921444     -0.14811846568486     -2.15362740973781
  C   3.90404427536529     -0.99899981988137     -3.15606815825380
  N   3.66890977713428     -2.37416052147208     -2.98157325614653
  C   3.08521340531854     -2.91136339335119     -1.81056553216304
  C   2.83972764353121     -4.37172958747327     -1.81791451330551
  N   4.09145072549926     -5.14610592852556     -1.90201794109026
  C   4.42677505642128     -5.79803234196702     -0.88195784134552
  N   5.63282513523688     -6.47563742915320     -0.78031534740417
  C   2.61363017078464     -2.02248062340703     -0.87836767121804
  F   1.97616542458969     -2.53203139824567      0.22315992927519
  N   4.55122406015380     -0.54609004233266     -4.20651646016526
  C   4.98009265824576     -1.53015225298563     -5.15876402690221
  C   5.58279948777243     -0.91118430272875     -6.34698605989341
  C   6.08283305271381     -0.43617793825566     -7.32897718174682
  H   0.38628370283689      1.40167510677661      0.55192384916474
  H   0.09794609732756     -0.18704836154465     -0.18208539236637
  H   0.65330945477492      1.15273696374550     -1.18523855192911
  H   2.26376747391665     -0.19126480548993      1.04021918746072
  H   2.82393042873651      1.17690879198263      0.08679079345227
  H   3.52119742644419      0.91496167932957     -2.29829631230566
  H   4.32507686195048     -2.99648071786760     -3.42849894864111
  H   2.25609220479876     -4.65378545604770     -2.70743340490775
  H   2.26277409413963     -4.63972458122395     -0.92651563778505
  H   3.82207458407791     -5.83566630126539      0.03218805593006
  H   6.10369782904245     -6.59650491016150     -1.66508676880007
  H   5.62685433362784     -7.29921162859631     -0.20105765590207
  H   4.15584802946061     -2.17499077339506     -5.51279947488485
  H   5.74224198448067     -2.22834724627559     -4.76009052989096
  H   6.51986701598725      0.00651740822038     -8.18983762676105
