29
Coordinates from ORCA-job 21999optt
  C   0.87919990002770     -0.32299129277237     -0.13910218269550
  C   2.40575875563795     -0.18523479895817     -0.09030430719500
  O   2.89527247526520     -1.18667067537985     -1.05764999616470
  C   3.11783403052923     -0.49843318049545     -2.17922477702186
  N   3.10855842811146      0.76469583756015     -2.16395040704130
  C   2.92140398126521      1.14305247163683     -0.74287952402872
  C   1.90296953156568      2.28752291583776     -0.64356772317095
  C   2.36918655614161      3.60138064708971     -1.25178681556865
  O   1.28771610236703      4.51988099009221     -1.40193557497003
  C   4.27131196949516      1.71824522884996     -0.20760174510855
  O   4.14628665944266      2.31351168702381      1.03250508155380
  C   5.54363045512219      0.84568184732959     -0.19841324222274
  F   5.71928070951325      0.10265187253515      0.88645093055006
  F   5.67517926716814      0.03640216511503     -1.26511990629187
  F   6.60918995192134      1.68188096004511     -0.24761430694019
  C   2.91933357548449     -0.46814457810638      1.28886039719245
  O   2.86729696031387      0.49846806356320      2.16744622059467
  H   0.46727351885153     -0.13997856149559     -1.13682600097131
  H   0.43312130606941      0.37052814585031      0.57387551779425
  H   0.63079478292885     -1.33976775045394      0.16508225392752
  H   3.31453602017131     -1.10014332495556     -3.05997892236881
  H   1.63862358981928      2.44347357213465      0.40324560948110
  H   1.00447985443809      1.97647230953025     -1.18395577134595
  H   2.84461735606285      3.41633707502013     -2.22060646902823
  H   3.08575152219314      4.09124955937119     -0.59402084125952
  H   0.58515040798266      4.06485409359997     -1.87416374834505
  H   4.54314705759929      2.47949943436293     -0.94937405028920
  H   3.62523264037421      1.62481352558071      1.62307465122371
  H   2.81286263413707     -1.50923823951137      1.61853564971059
