26
Coordinates from ORCA-job 22008optt
  C   0.74151047590924     -0.09551939264241     -0.08374525458117
  C   2.24041827831954     -0.00266257333546     -0.03180984024712
  C   3.04616967134889     -1.11482246619312     -0.06725367847525
  C   2.47690761797534     -2.42268803142232     -0.17490894484208
  C   3.27231189796507     -3.53134879165418     -0.17394376914613
  N   4.60907769008587     -3.48184439218113     -0.03354605617584
  C   5.19042043539792     -2.29483328916713      0.05917420583568
  C   6.70882457589858     -2.40763959130577      0.28530856120021
  N   7.10686847616232     -3.58962403218813      1.04670627298747
  C   7.40121263132245     -2.44145776460883     -1.01974741783477
  N   7.92549215703999     -2.48173282229736     -2.03882675403255
  C   4.50549913429328     -1.04830909962810     -0.01643757375196
  C   5.13050402105335      0.20111108255932     -0.05373876961553
  F   6.49782058060315      0.23701476827063     -0.16389818781558
  C   4.57351879551407      1.50306717889215     -0.03830012306442
  N   5.18973977274133      2.63644537526533     -0.08363855708436
  S   2.81487202954471      1.63043463937076      0.08183681578080
  H   0.35209095510733     -0.72585651776380      0.72125617181094
  H   0.39825278100987     -0.52431438388294     -1.03099711948849
  H   0.28489426303258      0.88971973707335      0.01639485753138
  H   1.40591936855534     -2.53809713329390     -0.26531637036554
  H   2.83921281912303     -4.52156156373540     -0.27131026630001
  H   7.07773086583365     -1.53084759580465      0.80809677135690
  H   6.55420878577400     -4.36356586757951      0.68558875717642
  H   6.78067699684789     -3.45422578089180      1.99821966929824
  H   6.19184492354109      2.46815830814446     -0.13516340015722
