32
Coordinates from ORCA-job 22007opt
  C   0.98277339351071      0.27547411652192     -0.66670665388138
  C   2.35711950386535      0.35392203716861     -0.00550388520998
  N   2.98708202288686     -0.96473439365832      0.15290686928228
  C   3.27465928837136      1.29546279119960     -0.77376789126404
  C   4.65931661903294      1.50690486827048     -0.15144879390910
  N   5.56243181849016      0.37958822154851     -0.42949962448806
  C   6.49849888209463      0.18669624363379     -1.38164731072034
  O   7.03727818818090     -0.90522761864968     -1.53579307905034
  C   6.85562539573323      1.35604145461653     -2.27449796399152
  C   7.38438580219859      2.60338618383753     -1.53850778453500
  N   6.65931477787185      2.98316882799144     -0.34527669558955
  C   5.21360775769892      2.87534828746258     -0.49118096464586
  N   4.41861328621757      3.87981719716182     -0.08115993275331
  C   8.85908684491173      2.45136649835819     -1.21955020971727
  F   9.59334480749969      2.29760885537673     -2.34100460363699
  F   9.36147716575788      3.52178822361049     -0.58956769413401
  F   9.12025027077598      1.38811677216928     -0.44428732222115
  H   0.31051193424551     -0.37656598014016     -0.10223036156429
  H   1.07696364357583     -0.12860026184674     -1.67881930507161
  H   0.52488325347730      1.26401602007613     -0.73702879532170
  H   2.23650266958324      0.76560927011553      1.00191771974083
  H   3.24882755566291     -1.32910839972570     -0.75940639913385
  H   2.33288582709246     -1.62462317681357      0.55910904222638
  H   2.80985491006431      2.28092216964836     -0.82726599276217
  H   3.40297999687805      0.92682708741234     -1.80034253345186
  H   4.51964165459675      1.47773486754477      0.94996715519094
  H   5.33861113663182     -0.46304943158249      0.08193466101970
  H   5.94762555436651      1.67408394216266     -2.78902372204655
  H   7.57727282989854      0.99315315108276     -3.00582578972976
  H   7.33530414042762      3.43805944951196     -2.24646730726451
  H   6.99081268996772      2.43142006797834      0.45108087867328
  H   4.97045637843274      4.73439265795622     -0.09110571003916
