30
Coordinates from ORCA-job 22002optt
  C   1.36819102029921     -0.93888206843581     -1.06808250801927
  C   2.76348673499516     -0.47930246006694     -0.68032312948077
  N   3.20267441753673      0.61721179614548     -1.52079679870851
  C   4.54943234048815      1.08029777551944     -1.16591358680479
  C   4.93785376430452      2.33134521758685     -1.87069036424690
  C   4.61527230319900      3.62812789934795     -1.49278800265793
  N   5.20101750906164      4.44151204065539     -2.44426458224378
  C   5.12220499563734      5.84121343294544     -2.40823276260904
  C   4.35383959790514      6.39466012435846     -1.38766618727423
  C   3.72149253044831      5.60195327295660     -0.45468834170078
  F   3.02961559012092      6.20871537388847      0.55599993154201
  C   3.88740486436659      4.20801198100355     -0.40269577696536
  F   2.82393243255549      3.43532006238067      0.06340107929332
  C   5.85560697628259      3.62359789905841     -3.32066295546401
  C   6.64673105613069      4.12103849994395     -4.46956311897548
  O   5.85044252059666      4.57303809005608     -5.57025489633271
  N   5.69736016485581      2.35043328737095     -3.00162523269016
  H   1.04519086650830     -1.78311677383723     -0.45576518307182
  H   1.34891780080996     -1.23590185005416     -2.11715841150211
  H   0.64713563216347     -0.12969696814400     -0.93360206951981
  H   3.47248690310656     -1.30318080584065     -0.81362443407290
  H   2.78614578135995     -0.21798971493969      0.39122106566861
  H   2.57184970653301      1.40606813967310     -1.40729959146680
  H   5.25744111499850      0.29253600049164     -1.43633611680063
  H   4.62493267650271      1.24638855867592     -0.07876778958323
  H   5.51177238576379      6.37430759633944     -3.25846905234010
  H   4.28845905695686      7.47058435962515     -1.29037573254342
  H   7.30290959293058      3.30724871081068     -4.78733752189358
  H   7.26109247216214      4.97795777118081     -4.18154545975099
  H   5.08710719142009      3.98850275130397     -5.61509246978475
