26
Coordinates from ORCA-job 22003optt
  C   0.96061666307248      0.38142244590857      0.31273971873605
  C   2.41106914622139      0.11768959913532      0.01800388341223
  C   3.27302088586096      1.18097091469422     -0.04345271739678
  N   4.61000431755810      1.10980815897113     -0.23737914660650
  C   5.05011970637424     -0.14689711141711     -0.35757274385361
  N   6.42490421724743     -0.28194842623870     -0.60091002179088
  N   4.36050910870157     -1.26174667331225     -0.30755787983838
  C   3.00380376469373     -1.18637865347960     -0.12237804325763
  C   2.26087893226674     -2.40677836211504     -0.10148997821045
  N   0.91661098369790     -2.37302704467035     -0.35387592128075
  C   0.19458310688965     -3.48202850686935     -0.38070553079240
  C   0.69852091552892     -4.74857799499248     -0.17829621516010
  O   -0.02832001814419     -5.91974154631286     -0.24031465639957
  C   2.07100675874616     -4.80938880939616      0.09641925057706
  F   2.63236508662192     -6.01199807396865      0.39692186661885
  C   2.85963850253971     -3.69349698914333      0.15614839216662
  O   4.15706897730072     -3.83456073726777      0.54475273724451
  H   0.82864805107594      1.44022956760335      0.55172685779015
  H   0.61404394946296     -0.21463654243047      1.15930662098986
  H   0.31365081634914      0.11953424011662     -0.52355511125800
  H   2.87254187579666      2.18470339681332      0.08832610859009
  H   6.95070374102460      0.49280577891517     -0.22612742193670
  H   6.76635097690189     -1.18675743155275     -0.31453182001687
  H   -0.87048662239695     -3.36818963206703     -0.59181778732578
  H   -0.92914546565855     -5.68461570781557     -0.48009845997313
  H   4.29829162226683     -4.77039585910818      0.72871801897211
