29
Coordinates from ORCA-job 22018optt
  C   1.47408657636130      0.40055196418638      0.17883613664196
  C   2.91298360440627      0.02349915747418     -0.17543254957850
  O   3.08636618338180     -0.00418701163281     -1.59822913585552
  C   2.45113071201015     -1.06860686030212     -2.25129233792198
  C   1.27367701695816     -0.63427219023233     -3.08391568240121
  C   3.35054980503641     -2.14622191467418     -2.76709544164122
  C   2.45728347805194     -2.40314177288411     -1.56909339113257
  C   3.05566429585118     -2.49615344416495     -0.20553968505073
  C   3.33388220331004     -3.70777261032653      0.38083693533139
  C   3.90759768041424     -3.78860394289714      1.68675784689095
  C   4.19501625481009     -5.03541226181944      2.30076167617766
  O   3.99548044130109     -6.16910921104740      1.80497041680295
  C   4.18394166106411     -2.55119180363152      2.34508261999652
  C   3.89097035506289     -1.37381226033279      1.72392601541736
  F   4.15785609575706     -0.20524866804234      2.38270393800156
  C   3.32880599824037     -1.27614311920670      0.44845027387479
  H   1.17409536705569      1.31877267330779     -0.33331616880649
  H   1.39349154997818      0.54669219955697      1.25681160030401
  H   0.79398076729188     -0.40719148636909     -0.09964071390902
  H   3.57482043045820      0.82362092378425      0.15882215020824
  H   1.59479703361338      0.10140269406383     -3.82475109510176
  H   0.50183935460012     -0.17794185950316     -2.46156668870623
  H   0.83952740524408     -1.48765471439949     -3.60752576548209
  H   4.40423114458237     -2.03223369686643     -2.55350281640301
  H   3.09992465284629     -2.62358287131290     -3.70580968901357
  H   1.59793262948755     -3.03850833679431     -1.75090665697160
  H   3.12606563291577     -4.63578070706319     -0.13857432194195
  H   4.63813942236842     -4.95490811163151      3.31462410255940
  H   4.62586224754091     -2.53586075723893      3.33460842771069
