30
Coordinates from ORCA-job 22014opt
  C   1.04154592148266      0.07931301432531      0.72375739737058
  C   2.46350128424195      0.02289430064703      0.25818433752160
  C   3.12353939022368     -1.24112268677503      0.21292809250134
  N   2.46113854773971     -2.36819977487102      0.55845164775385
  C   3.11405893520165     -3.51481164175589      0.42725529723639
  N   4.34384222770378     -3.62603672843817     -0.28308280073469
  C   4.91547097109235     -4.94538871976631     -0.15888734088724
  C   6.11575925371366     -5.14427710698128     -0.97144040746322
  C   7.11776490473352     -5.33438447943490     -1.60194309229856
  C   5.27575167954165     -2.50309573989139     -0.09640124374946
  C   6.07483699743729     -2.56868697673865      1.22583220703775
  N   5.31108115207203     -2.35581520875186      2.44927110087899
  C   4.49298647134150     -1.22285321580768     -0.18525943460323
  C   5.07382665814715     -0.02275995902398     -0.56946071556028
  C   4.29446760901382      1.11333854694821     -0.52056293206390
  F   4.82609845830509      2.30839554623025     -0.90528868778067
  N   3.04300338079136      1.15622307343456     -0.10716998444685
  H   0.40914393794198     -0.53835814355971      0.08130226687173
  H   0.69421782430639      1.11065612862035      0.71507646770226
  H   0.95062469418585     -0.34374410013591      1.72680152025347
  H   2.57435143234521     -4.44846122256972      0.53822853036133
  H   4.15865076847113     -5.66643809725490     -0.48008086088447
  H   5.15806299706408     -5.20172862384379      0.89168395544196
  H   8.00018424327860     -5.49268209104853     -2.17231735190134
  H   6.00268436799937     -2.54948797225167     -0.91493590929469
  H   6.86142857587892     -1.81139923691103      1.16777325936978
  H   6.58350873560848     -3.53615772004595      1.30122852897326
  H   4.56301630364963     -3.04580633462908      2.48776297818127
  H   4.83387276494536     -1.46094988885004      2.37755122857145
  H   6.10757951154159      0.03282505913098     -0.89225805435842
