34
Coordinates from ORCA-job 22023optt
  C   0.99066864307126      0.41288531081733      0.12674532080094
  C   2.45540258234185     -0.00009004436852     -0.06169944737791
  C   3.29988747170633      1.25368157696947     -0.29223758363170
  O   4.67671652482179      0.98136190591541     -0.43312234031463
  C   2.96830273566932     -0.78922179710619      1.11484651656457
  C   3.64954295269453     -0.18222703117221      2.20088705436530
  N   3.72251452710807     -1.16758080391933      3.22666626228367
  C   3.31953476668151     -2.37782250213352      2.70852665489484
  C   2.81249830129800     -2.16502157199974      1.38888100012539
  C   2.33869203358232     -3.31336871741237      0.67434261817341
  C   1.94393948025831     -3.17293716138397     -0.76918843812440
  N   1.62341945460602     -4.45688099771725     -1.40572205016764
  C   2.32414260932138     -4.54438362412166      1.32793132257572
  C   2.80238383143278     -4.74702835069597      2.62252036223101
  C   2.79984856244774     -6.09095169037357      3.28842801969007
  C   3.33338947743162     -3.62409906808953      3.28028357393894
  F   3.82612343112738     -3.76248951657178      4.55497250335351
  H   0.62217321581542      0.98880558135735     -0.72943291355399
  H   0.89012025921929      1.02358334334042      1.02749222091201
  H   0.35912672635314     -0.46653142376341      0.25142480625175
  H   2.52400058583363     -0.60052661230948     -0.97156049420077
  H   3.12852933500941      1.95829490414508      0.53448473497901
  H   2.97783216624793      1.74892811892716     -1.21225103936382
  H   4.91452989303159      0.46535914580108      0.35789498088193
  H   3.53378907358951      0.85185767286937      2.50783420100353
  H   4.42686154952022     -1.14124401719786      3.94259243435753
  H   2.75980520711276     -2.65406620649718     -1.29246380164146
  H   1.05936578361605     -2.52887575106664     -0.87530177695831
  H   2.41529000626351     -5.08214947226123     -1.29537854943859
  H   1.49717580044356     -4.31686638141104     -2.40092603949025
  H   1.92046312565765     -5.40450575249701      0.80441411241110
  H   2.37274365580235     -6.83755347085692      2.61712994573087
  H   2.21426435116491     -6.09654410318067      4.21396997793512
  H   3.80992187971874     -6.41879149203556      3.56001585080320
