29
Coordinates from ORCA-job 22028optt
  C   4.29194240539003     -0.24902947106661     -0.71626759715042
  C   4.98676239456024      0.47896884734447      0.41648250890185
  C   4.35029755430349      1.85548942950122      0.70173022778926
  N   4.40574630992000      2.78462546997638     -0.41339581033696
  C   3.84991958250977      4.10707291153889     -0.12696984592279
  C   4.50511017593878      4.99798252772036      0.96666544480007
  C   5.97967268345295      5.19258394740877      0.72546685955902
  C   6.51039193901101      6.26507363414303      0.11345957675629
  F   5.73526655170226      7.31050081622398     -0.29223645031835
  S   8.19246988032279      6.37417706758037     -0.32441701141610
  C   8.62289128259461      4.56884804609629     -0.51036342548740
  O   9.60746851924205      4.31342101389290     -1.17729521667813
  C   7.74315745308764      3.70647362323266      0.20290192925795
  N   6.70610484348905      4.07124424700448      0.97993441170962
  N   7.71792130256656      2.34979126716015     -0.19337827837163
  C   7.03076340687849      1.59867401434992      0.55197948356221
  O   6.38681636248102      0.50211398883089      0.05846471972881
  H   3.24609831100555     -0.43191111081876     -0.46281012076957
  H   4.78433154267169     -1.20270333998807     -0.90576277311580
  H   4.33320867992166      0.36082727022866     -1.61766817874805
  H   4.89189830036239     -0.09810333723532      1.34562976923584
  H   4.78605045332867      2.27932347343325      1.61386181609132
  H   3.29489790366983      1.65080356121343      0.92052225140245
  H   5.37138687743375      2.89142635945156     -0.71051767325017
  H   2.79409130502910      3.96905601900531      0.13349518833359
  H   3.87508815417997      4.66946300548742     -1.06351325285163
  H   4.38806689815467      4.53626906795107      1.95041901921247
  H   3.96667844542992      5.94862713827919      0.97348718306035
  H   6.78550048136196      1.84091051205404      1.58309524501591
