34
Coordinates from ORCA-job 22032optt
  C   2.27051803584642     -1.02808218426004     -2.49748744721339
  C   3.16442117889028     -0.67285269428360     -1.32961818733018
  O   3.92733939494478      0.45379139247918     -1.68997277039306
  C   4.64370892767789      1.05292236261505     -0.58834513983621
  C   5.89960941042204      0.21008232957586     -0.30734276462121
  N   6.61352435077992     -0.09172289996652     -1.54685741258226
  C   4.88345724356838      2.49594874116434     -0.87968438774596
  C   4.17617274836111      3.52618157927316     -0.33167552329275
  C   3.08409393479131      3.38054192222540      0.69227384308445
  C   1.70183535118731      3.39324507944450      0.04289656227495
  N   1.49400026546198      2.16855347778053     -0.74428018803259
  C   4.44550243456451      4.89538932549723     -0.74470584009011
  O   3.76750259902386      5.89829658111627     -0.34822733664817
  C   5.66483907946248      4.98455409911166     -1.49419322156611
  F   6.18673188592160      6.21544015434532     -1.65304894918567
  N   6.39074299071079      4.03860673873200     -1.98694083403160
  N   5.79281539782387      2.77302777918723     -1.92233750798752
  H   1.66993622565261     -1.90987282777831     -2.26780373473249
  H   2.86589728584299     -1.23095047307786     -3.38845709541030
  H   1.60127448510292     -0.19460882622405     -2.71207106563230
  H   3.81758635169656     -1.52079627702321     -1.07464974649161
  H   2.55382198621215     -0.43030977838053     -0.45124242239832
  H   4.00145472129257      0.99319902406423      0.29233010670586
  H   5.59454165006222     -0.69748979875062      0.23157809176724
  H   6.54832984778266      0.78452663344608      0.35653779646893
  H   5.94080739311289     -0.36995955115204     -2.25363146876077
  H   7.27912407386302     -0.84205100499762     -1.42041216537968
  H   3.14607252432877      4.24788348066111      1.35213067700773
  H   3.18749497065825      2.47476538286114      1.29264815588752
  H   1.62998839877788      4.31086179436665     -0.54933094599267
  H   0.93471157733483      3.42991005173312      0.82164587958064
  H   2.26568928412956      2.06908475528887     -1.40155385315731
  H   0.65296677543547      2.25786500915063     -1.30298783943504
  H   6.49648721927594      2.06001862177478     -2.04918326483000
