30
Coordinates from ORCA-job 22055optt
  C   0.45800838466863     -2.12848884641321      1.73215980988910
  C   1.91760298218047     -1.98918360083165      2.12090125759497
  C   2.80252591540880     -1.56908787554648      0.97183231340617
  O   2.37124766280499     -1.42985219371041     -0.15046894403555
  C   4.25861266665562     -1.27094894207106      1.29388077880259
  N   4.65730524277692     -1.90533076433491      2.51655722820712
  C   5.89862514159516     -2.18182249349761      2.74867141724387
  N   6.99849968270386     -1.62518064515891      2.08092907494360
  C   6.91849040082431     -0.21209910893957      1.71631457509103
  C   8.28753832194164     -2.19434397011518      2.23520164210858
  N   8.58046372860544     -3.05082573917516      3.22745690988918
  C   7.57475948393200     -3.46074102304678      3.99520551184823
  C   6.26835890219281     -3.09435967813027      3.77982255366102
  F   5.27626888395304     -3.68433438018222      4.49028185359792
  C   9.29174762454237     -1.86761454060050      1.25964469055819
  N   10.58011177765415     -2.30912186536198      1.57204845363963
  O   9.08597252959992     -1.22269765344337      0.22213318809013
  H   -0.14491686323441     -2.41830344942682      2.59391401240047
  H   0.33496896816898     -2.88193304844042      0.95410059831424
  H   0.06800181187077     -1.19111355457777      1.33384744611155
  H   2.33985708284732     -2.91189684606346      2.52597811149495
  H   2.07054011013721     -1.26458134457127      2.92639617883676
  H   4.29961669804534     -0.16933568632175      1.32429491753062
  H   4.85835671726737     -1.56536935923351      0.42326156495979
  H   6.18316687921499      0.27247232866146      2.36132665807521
  H   6.65322680967037     -0.05874722061911      0.67108613792001
  H   7.89309380704698      0.24121647618749      1.87967128767989
  H   7.80169588206838     -4.15664660446898      4.79772228156159
  H   10.60012599027073     -3.05363128246237      2.25396687793048
  H   11.14812677458572     -2.44409708810419      0.75086161264863
