28
Coordinates from ORCA-job 22052optt
  C   1.37560097036450     -0.16980147171570     -0.36718985519875
  C   2.83001334253079     -0.59785443270743     -0.17050346683318
  O   3.70126717796114      0.26416743825388     -0.88924744513342
  C   3.18213406669741     -0.70207655315007      1.30422969358947
  C   3.47909284862170      0.46689633915850      2.04666429620060
  S   4.06387208053616      0.26368151301813      3.71186720401354
  C   3.53966033860056     -1.42677863041249      4.16900415982524
  N   3.56864936737443     -1.72744599084407      5.41480299370277
  N   3.21305039643771     -2.29134007399258      3.20080728024130
  C   3.10091891232716     -1.92409224585193      1.94728034360721
  F   2.78613324242711     -2.97564463767996      1.14231606985203
  N   3.41246648150057      1.66806933975292      1.45331024878787
  C   3.46038068741899      2.87656104677666      1.93987254550599
  N   3.60259999920311      3.26393557582351      3.27420710751934
  C   3.54604251137462      3.99328467353622      0.94559653220955
  C   2.74507208604270      5.23967732509838      1.19019649561590
  O   2.07863347744774      5.49149873498980      2.15988370219820
  H   1.14957760691385     -0.10170147163355     -1.43353289219830
  H   1.21160229744394      0.80603338173293      0.09367396820203
  H   0.70204490461468     -0.89311191628228      0.09612844566610
  H   2.96409311131097     -1.58209111601298     -0.61574330262153
  H   3.76746660147800      1.05842155601560     -0.33361438850351
  H   3.82559192780988     -0.91922740845050      5.97366248548864
  H   3.42473256712076      2.52831538447583      3.94333454000040
  H   3.07901485783383      4.10371201914539      3.48402299690908
  H   3.27445045045548      3.61708856698773     -0.04417065682223
  H   4.58445095187497      4.35651638993228      0.84639223720480
  H   2.82638673627715      5.98730666403576      0.37374866097082
