29
Coordinates from ORCA-job 22064optt
  C   7.51115766991008     -0.26236757138413     -0.07507951712366
  C   6.65903661269402      0.73005137962032     -0.83427605821758
  O   5.29643166242631      0.36063850432887     -0.62618547179714
  C   4.30043158785788      1.23294786505483     -0.95424059106854
  N   3.13406514860995      1.05256894600308     -0.50160438257236
  C   2.93253415587810     -0.09039575235747      0.36906054159378
  C   4.62972750452290      2.38294517825947     -1.83189008422325
  C   4.42392814634490      3.73125638831591     -1.39493055089538
  C   3.88898142711731      4.06615043682321     -0.03703513049457
  C   4.77407825546637      4.68381310305461     -2.34439973689578
  F   4.59798053565243      5.98936248912885     -1.99434470002997
  N   5.25671072288186      4.50713414632511     -3.53068909571954
  C   5.46838302995862      3.21278575258403     -3.97104133738289
  C   6.02205557459259      3.04148857291716     -5.27491699919596
  O   6.31537993779275      1.98366437935169     -5.85051765727363
  C   5.12627937577977      2.16238404135750     -3.08546606521955
  F   5.28457597753678      0.88623172549037     -3.48816818311839
  H   8.56695493421582     -0.02632283682263     -0.21456883854408
  H   7.33186219368435     -1.27338717387460     -0.44179385405824
  H   7.28250958289590     -0.23511542451933      0.99078417016706
  H   6.89375048018180      0.70535649439051     -1.89834691650038
  H   6.82064958387511      1.74772966488429     -0.47116200819280
  H   1.90631476791800     -0.08117292697719      0.73366207386430
  H   3.61383755643115     -0.07792729081070      1.22611979220450
  H   3.10555226958780     -1.03196660532569     -0.16067920059125
  H   4.46863300076397      3.57616438434790      0.75344753245296
  H   2.85703599193395      3.72723236536960      0.08559432740241
  H   3.93011233828538      5.14104013733565      0.12872790146753
  H   6.19104997520402      4.01570962712874     -5.77305996003759
