25
Coordinates from ORCA-job 22067optt
  C   1.86719254216617     -1.34846631104682      0.89552783557570
  C   2.30574864590943     -0.03364983973820      0.26939373295401
  O   1.21727245570833      0.50612805552392     -0.45743197656822
  C   2.79832653307358      0.94580099085521      1.28175133943118
  C   3.50433208352715      0.74794184508630      2.44004032388374
  O   3.60172585401766     -0.40179629651354      3.21967913708693
  C   4.56496183924119     -0.03087634354825      4.18617256889965
  O   4.44422348514623      1.35628678037839      4.39056979985175
  C   4.02871273807018      1.81539355155558      3.14146284230957
  C   3.85728291154360      3.13809147465047      2.74221563215575
  C   3.17877449130654      3.36559800513879      1.50986394910608
  N   2.89078544012198      4.47426104739389      0.91968283753647
  O   2.77546173417469      2.25158258257542      0.78025506086600
  C   3.39437494113862     -0.35278857629246     -0.77817725107285
  F   4.47566289564698     -0.90872610050215     -0.20758107289585
  F   2.96429932789664     -1.23634568015980     -1.70456499611706
  F   3.80128971786316      0.72878317520277     -1.44362658325897
  H   1.08975041541170     -1.13470765467442      1.62505653796424
  H   2.70078390931912     -1.83351444148851      1.39939241506939
  H   1.47223515071855     -2.00207862723986      0.11830726121325
  H   1.35134833452666      1.46564446046240     -0.46403534994257
  H   5.56809323755092     -0.25041925394967      3.79065996803004
  H   4.36605785267945     -0.55927126758182      5.11640200506111
  H   4.23999092700666      3.97774180681493      3.30043540070096
  H   3.23931253623474      5.23738661709742      1.49254858215966
