32
Coordinates from ORCA-job 22076optt
  C   1.16698521189721      0.30406913600037     -0.22943567576871
  C   2.66797633951715      0.24698090445494      0.00773935401124
  N   3.04220601420427      1.20011010721390      1.05922479889100
  C   4.39829623499701      0.81277125429124      1.43322629526255
  C   4.49653809143401     -0.71733310155012      1.32620151573104
  O   5.75572257912618     -1.06573693612737      0.83322610968587
  C   3.27093759699271     -1.12561882829320      0.42480567646722
  C   2.26785529655131     -1.96814441610881      1.22461331983942
  O   1.76723711196763     -1.31317700252005      2.39329609636809
  N   3.73212569193111     -1.90546447163726     -0.72094245626900
  C   2.94668164421588     -1.98355175111987     -1.86915675928106
  C   2.86604210742803     -3.10751187945526     -2.58105851790108
  F   2.21027449564150     -3.09206237369595     -3.76862729435456
  C   3.52181827054860     -4.35643474584676     -2.18909150236460
  N   3.41647085366785     -5.50174774560806     -2.84785848238727
  C   4.29803169769333     -4.17392066826069     -1.03095065419463
  N   4.45039423410380     -3.05872415782401     -0.29599194831108
  H   0.89197792076309      1.29937396512063     -0.58033451606110
  H   0.63084715696711      0.10821588055155      0.70080209553659
  H   0.83895683791320     -0.42947805001700     -0.96521546123345
  H   3.20154674611964      0.55279196359236     -0.89929393621723
  H   2.42303210761915      1.02872653823757      1.84642901794178
  H   4.65529129025091      1.19638551492225      2.42088707813034
  H   5.10561224270250      1.22641156214016      0.71014313941422
  H   4.35800828276320     -1.17368860500291      2.31955560756506
  H   5.64631168518675     -1.96836649488426      0.44630340814720
  H   2.74634937040203     -2.91564347231574      1.47970097422179
  H   1.40043130904462     -2.18701572447913      0.60020546030704
  H   2.44283298327374     -1.36688554805380      3.07417719215592
  H   2.49520335436881     -1.06790636092452     -2.22649043674527
  H   2.80643748767708     -5.36338010219550     -3.64956188864224
  H   4.86856775303052     -5.02404439060463     -0.67252760994511
