27
Coordinates from ORCA-job 22070optt
  C   1.09916846180480      0.15363358917826      0.37690765069415
  C   2.58304996060018      0.07557259918958      0.08438382559683
  C   3.28118104003932      1.22126561874100     -0.22597950056606
  C   2.63143520720207      2.56800490922913     -0.32512625544723
  N   2.69936391953034      3.31455159344790      0.95154380558484
  C   4.73991583214894      1.17744312969281     -0.45307435248562
  N   5.68007239142047      0.83188891715242      0.63447136624770
  C   5.42527417975933     -0.13787271627049     -0.46113791289239
  C   4.59791075944437     -1.33312757061002     -0.25176506709244
  C   3.23910830813659     -1.19520353106286      0.09883552581431
  S   2.23220549527905     -2.61245268911311      0.28451143658067
  O   1.81567657190069     -2.76405334850377      1.65694552066133
  O   1.19785184675681     -2.62922779012283     -0.71469058106809
  N   3.15683710894947     -3.94796463458292     -0.03187399514363
  C   4.41061704959076     -3.98747926165198     -0.00721204131145
  F   4.98335039399237     -5.20626006023681     -0.04278069998316
  S   5.58373999637901     -2.74663539061291      0.08358582146224
  H   0.82713145440621      1.14317981035253      0.74059531238548
  H   0.80692246040638     -0.56841771523747      1.13767013462925
  H   0.50902260273091     -0.06575831827870     -0.51510152580354
  H   1.60267843595968      2.46691656310347     -0.68569929830849
  H   3.16593672526696      3.16554619790630     -1.07052460416596
  H   2.42307006289827      2.69487397174155      1.70520191138132
  H   2.04851018980319      4.09375915269348      0.94691292567161
  H   5.13332898815965      1.95585328866830     -1.09964428872036
  H   5.12099076320634      0.54847108095416      1.43674249772140
  H   6.29364979422763     -0.26950739576701     -1.09969761144271
