30
Coordinates from ORCA-job 22072optt
  C   1.13994546074102     -0.31413990171611      0.35844374457933
  C   2.61322197577695     -0.06664734428692      0.05538784040612
  C   3.22679776373819      0.96108193701736      0.99415231548856
  C   4.73571472260285      1.15826768539289      0.77971415532759
  C   5.02868930955174      1.63188595998288     -0.57931635288504
  C   5.23473377073576      2.02207440784317     -1.69381351908454
  N   5.30763581538366      2.04676376347326      1.76207872115733
  C   5.14964031663764      3.45486863941403      1.77945894951965
  C   5.38068663400167      3.87300676039223      3.04923082300151
  N   5.44861326078920      5.11688871054075      3.59126090416468
  C   5.72459048740991      5.13406809349672      4.88296432145599
  F   5.80460874051303      6.38340567736435      5.42009685065898
  C   5.93470622920073      4.06723839938915      5.73216973177680
  C   5.83162100991918      2.76847136357527      5.20673508136864
  N   5.60683734328488      2.70462677906487      3.82226117004739
  C   5.49566652909531      1.58449735186896      3.04769474515902
  N   5.50486665578718      0.32440325670427      3.36302853014336
  H   0.70459919747649     -1.04462536729513     -0.32591350884079
  H   0.56657378891793      0.61128231066601      0.27312183333277
  H   1.01299810088533     -0.68752140283787      1.37644919996096
  H   2.72949196630276      0.26752499985545     -0.97898887011266
  H   3.16772469339954     -1.00630420352426      0.14362987668380
  H   3.11146309198440      0.63994363351229      2.03248240758900
  H   2.73243924369772      1.93063341682886      0.88405848982813
  H   5.22473239416956      0.19097844669583      0.92689794809453
  H   5.43111083530669      2.37561203098216     -2.67663736697600
  H   5.04723845453631      4.02412677455089      0.87468558308724
  H   6.16591772790831      4.23707121720913      6.77241872043688
  H   6.18438557581412      1.87281134378461      5.69155153674071
  H   5.62574890443177      0.21870526005484      4.36369613789001
