32
Coordinates from ORCA-job 22088optt
  C   1.66068956340452      0.43838261640040     -0.97827819506784
  C   2.82926969102708      0.47550313748269     -0.00233930002639
  O   2.38670551745995     -0.05213254588850      1.21613651113670
  C   3.47174761590183     -0.30072342231025      2.15352550269223
  C   4.36232460200467      0.84848047686806      2.41275566414891
  C   3.91445897899471      2.06134481222624      3.05223229539338
  N   4.71306647990672      2.99017672986715      3.50143064045125
  C   6.06068500619017      2.85823521284289      3.32918777851866
  C   6.58685890982871      1.84586227703283      2.47608017889373
  C   5.73028693332957      0.88166412351543      2.05185144588248
  F   6.18740891146192     -0.08299455337217      1.18562683671373
  C   2.41430863675633      2.33294595703904      3.09881565057839
  N   2.03233936158130      3.35838345768418      4.07311655287557
  C   1.85989098322081      2.75180455434516      1.69018262564196
  N   2.89567016937790      2.90912617030599      0.68712521426936
  C   3.37178818753286      1.90600089125518      0.07631817855063
  N   4.44722212091222      2.10576212592925     -0.80112237255227
  H   1.31086874093214     -0.58713593284623     -1.10340842350872
  H   1.96940832052151      0.83721134689509     -1.94538812965341
  H   0.83978364534743      1.04506642127259     -0.59581380639318
  H   3.64005181046025     -0.15708793827732     -0.39483760234643
  H   4.05791595148910     -1.14559804367407      1.77558840055427
  H   2.92681340365904     -0.63321797505485      3.04327190560898
  H   6.68872015550855      3.64841804952955      3.71696316294305
  H   7.62081685477640      1.84028953735373      2.15439409265665
  H   1.90194073530838      1.40992024580145      3.38229834625506
  H   2.64813545480457      4.15000681153890      3.89165132091137
  H   2.33798198432978      3.03692590481496      4.98755629036986
  H   1.38915915707958      3.72618256027952      1.82692641966475
  H   1.07828638526343      2.04579651214925      1.39802417615407
  H   4.87654972787650      3.00151253161352     -0.60325304230610
  H   5.13584600375197      1.36588794738030     -0.73261831901072
