30
Coordinates from ORCA-job 22080optt
  C   3.18140003183080      0.45668613272952      1.51024058008138
  C   2.72989326361313      0.05247903290984      0.11719992999877
  O   3.44908626370840      0.77735963591856     -0.86439230902464
  C   2.81268551038702     -1.47345501514174     -0.13298388349279
  N   2.10568379453641     -2.16860300437810      0.94642461778230
  C   2.21147540304438     -1.76768901354721     -1.55397905754945
  N   2.73259489474338     -2.92124784955280     -2.24086718461522
  C   3.86276875666411     -2.84345786907604     -3.02917430476325
  F   4.24408747030046     -1.56540911421269     -3.26886145522749
  N   4.50758089441148     -3.78576030851056     -3.55950880780706
  C   4.09177320069599     -5.07454253662607     -3.28265729910788
  C   3.05208452674126     -5.29701333093491     -2.36037303723744
  N   2.67315822355116     -6.61987459010019     -1.99373784791295
  C   2.36799501847966     -4.24745281346049     -1.76562346489564
  O   1.46358340999196     -4.32388057853505     -0.88206369442426
  C   4.22986712456808     -1.86636092106805     -0.12135640027989
  C   5.39129499669052     -2.15335808459778     -0.19491465144607
  H   3.10769515950668      1.54016123259397      1.60878300756059
  H   4.22195703419445      0.16015874708319      1.65595711791671
  H   2.57918860658154     -0.02667154614416      2.27732395547841
  H   1.67851256748635      0.33001955188753     -0.02639818096402
  H   4.27396444081554      0.30494419308039     -1.04233032752813
  H   1.93970956785140     -3.12516506977808      0.61450186493060
  H   1.17415565420603     -1.76157225943548      1.00144260715586
  H   2.36675614341389     -0.89587742557496     -2.18419701940381
  H   1.14260041386477     -1.92518662532789     -1.40276289188337
  H   4.60119001621252     -5.88294966849764     -3.78589973014682
  H   3.47512731524454     -7.13231817900663     -1.64098561129643
  H   1.98843679894757     -6.54691500640664     -1.24770245257195
  H   6.40869349771620     -2.45004771628958     -0.28010406932595
