25
Coordinates from ORCA-job 22093optt
  C   1.06158516638558      0.17489299009593     -0.15214635081036
  C   2.55450034597454      0.07270482045697     -0.09611174478029
  N   3.10034677838144     -1.10572476015423     -0.06307919182978
  C   4.48550776233050     -1.24873388994735     -0.01585509788763
  N   5.07199695774752     -2.39488608866053      0.02799716242479
  C   5.23522537061577     -0.01977660672248     -0.01851169451527
  F   6.57486373943255     -0.11153237401040      0.01512933585976
  C   4.64627962910144      1.20975882618411     -0.04741176535632
  N   3.24027612987187      1.24583479014539     -0.08551363171736
  N   2.47891704642331      2.40781185453898     -0.11617897958904
  C   3.17821191811422      3.56149886978568     -0.10291743704571
  C   2.40323879782549      4.75444224523583     -0.13253898135749
  C   1.77813445920655      5.78608322081994     -0.15779015651357
  C   4.58005406217899      3.65863928381623     -0.06470201706180
  C   5.27409272280993      4.98915028710323     -0.04927043741189
  C   5.28407735038128      2.47841243169828     -0.04099824009111
  F   6.63809059797299      2.49972795425831     -0.01180760183015
  H   0.65972979814663     -0.83399070791326     -0.16182679189757
  H   0.75147022778456      0.72731462644616     -1.03922668024809
  H   0.68549888278850      0.73670041076287      0.70283574524582
  H   4.34137761222969     -3.10488334174419      0.02171383317527
  H   1.21422354695159      6.68584140051153     -0.18090050664042
  H   4.96227472252771      5.57786841531086      0.81599059359150
  H   5.01850616017211      5.57063269654422     -0.93735056860227
  H   6.35352021464521      4.85921264543791     -0.01352879511104
