31
Coordinates from ORCA-job 22090optt
  C   0.94393228062591      0.05862857942190      0.09722091660262
  C   2.45993815661330      0.01623235796790      0.00128863486391
  O   3.05603419270600      1.10111734766217      0.72763783743683
  C   2.99828242097691      2.23059482955173     -0.11933642121136
  C   3.19993060709141      1.72257522823529     -1.55432238504607
  C   4.65117485832976      1.87578616354682     -2.02418922461064
  N   5.39284647733976      0.80077693488404     -1.36890294503798
  C   4.48316585731043     -0.34630013260874     -1.49825450195379
  C   3.00751038736542      0.17950057986603     -1.43871730913748
  C   2.14442895689567     -0.46275024386707     -2.50108416190563
  C   1.54825868017442      0.23528346982850     -3.58804981976587
  C   0.77628890078873     -0.51551457433364     -4.47175839404647
  F   0.16519327620007      0.11014123754654     -5.51714092377390
  C   0.59801085756348     -1.85039672495800     -4.33498422453104
  O   1.18949901797471     -2.53360508799446     -3.29811558537343
  C   1.97135558119667     -1.85075696664356     -2.35374353483421
  O   2.42912451197963     -2.55855608294681     -1.45351482731434
  H   0.64900489581259      0.18560717071729      1.14091415694662
  H   0.53148972549816     -0.87581328586589     -0.28171869810736
  H   0.52324626462026      0.87316470858681     -0.49713464912550
  H   2.82577296528785     -0.90225954356753      0.45440608699193
  H   3.78177505786817      2.92474102900696      0.19788288355274
  H   2.03101659729118      2.73737319576548     -0.01429773922741
  H   2.49038292818036      2.19472166295489     -2.22884131238364
  H   5.08125021326583      2.85287994202442     -1.79256790166799
  H   4.70712152893838      1.72265954044033     -3.10643326612433
  H   5.46054423901478      1.02925426201276     -0.38088226808225
  H   4.68442215902726     -1.09372195520783     -0.73354038196732
  H   4.64375685140697     -0.81043282199516     -2.47280652366990
  H   1.68113606006879      1.29001543381058     -3.77256489502315
  H   -0.00089450741289     -2.46394625384178     -4.98844862247349
