32
Coordinates from ORCA-job 22101optt
  C   1.03025480025887     -0.12605892500845      0.10089718053093
  C   2.53358643006621      0.00039771347013     -0.18430630950612
  C   2.90889457158057     -0.26108719347543     -1.60997685759558
  C   3.05268531552578      0.73187327007915     -2.59031192085131
  N   2.70552401022851      2.08687767585282     -2.32903784331244
  C   3.81848420563715      3.02693744684618     -2.33246012161637
  C   3.48193830269154      0.38083511387529     -3.86286807432315
  F   3.61926589961746      1.36403574022628     -4.81904554354876
  C   3.67147905469686     -0.92638399777657     -4.32417379002593
  O   4.76796779814760     -1.21868959215605     -5.18559956292051
  N   3.52004631676208     -1.90496084916810     -3.31889789424421
  C   3.57444298348969     -3.26460821696482     -3.42023890043918
  N   3.95219807192544     -3.89917043771314     -4.59625982873296
  C   3.42055767276880     -5.22840482338304     -4.79398452641619
  N   3.27401931533316     -3.86280871741789     -2.29612853000623
  C   2.99287132821346     -2.84500838891402     -1.40340555766539
  C   3.12672254047514     -1.61409095126719     -2.00697798374717
  H   0.80565897220469     -0.00053485252985      1.16500856715451
  H   0.67620182930473     -1.10824975911950     -0.21610468418952
  H   0.46647343784218      0.62157260673650     -0.46171127946588
  H   3.06634380673843     -0.71511757664368      0.45356370155571
  H   2.87864148965220      0.99138861369303      0.13294068130671
  H   2.20503832609974      2.14290117637260     -1.45330594836863
  H   4.22377458882627      3.10592017074159     -3.33934265549160
  H   4.63341276574187      2.72423910331399     -1.65997397691396
  H   3.45662693283715      4.01164060489596     -2.02883125932192
  H   4.71338424574962     -0.55980669854391     -5.88412805276761
  H   3.91253211869211     -3.27793984040938     -5.39120613747571
  H   3.76793230391228     -5.87553818504113     -3.98933346838376
  H   3.78945031298130     -5.61906531521602     -5.74276602515232
  H   2.32325364484645     -5.26158822098887     -4.78992535329416
  H   2.67933660715252     -3.05250669436645     -0.39310804477119
