29
Coordinates from ORCA-job 22128optt
  C   0.95808875160078      0.98307976710338      0.06727920905130
  C   2.12007465145642      0.02670571875374     -0.22235210416278
  N   3.15282258105857      0.79754071336651     -0.91416919724257
  C   4.27759656606015      0.27660022223754     -1.17995744549444
  N   4.67168377424778     -1.04161783626764     -0.99370612336045
  N   5.28616182926758      1.06551731880843     -1.75039847773089
  C   2.59440289545625     -0.70141597888691      1.01708221009096
  C   3.32559110662260     -0.08458704679045      2.07058192736224
  C   3.56825273658415      1.30713289336763      2.06409396080776
  N   3.79501012557059      2.44180202494886      2.12153262945221
  C   3.96708817859339     -0.82162263677646      3.13804291175301
  N   4.73366996896231     -0.33768755900726      4.06368416981884
  C   3.74384863445299     -2.29295438046181      3.20633888033995
  C   4.58348270581487     -3.06882140663804      4.17852996393584
  C   2.78291415388411     -2.89011558985008      2.50226542655269
  F   2.50666507192540     -4.20445377619531      2.68733505660398
  S   1.71568953723469     -2.19607434221313      1.31801211153443
  H   0.60093838428910      1.42938820425751     -0.86300362897088
  H   1.30218561222257      1.78255772154755      0.72399368248530
  H   0.13781293417274      0.45119954459451      0.55305004724334
  H   1.74822144098529     -0.74481156123617     -0.91436179168919
  H   4.10062763398956     -1.50271095431647     -0.28839712274363
  H   5.65554123661791     -1.12203864186182     -0.77685752054483
  H   4.92130774328051      1.97747785374469     -1.98559101933733
  H   5.74512091544854      0.62181316552793     -2.53347222971601
  H   4.82619358895678      0.67019728323344      3.94406561127996
  H   5.63793697389541     -2.85664025441333      3.99952036111069
  H   4.40114661600665     -4.13826761388799      4.09842387249370
  H   4.37692365134223     -2.73519285268886      5.19643462907677
