25
Coordinates from ORCA-job 22127optt
  C   1.16825526762507      0.11586540335072     -0.05574038048427
  C   2.66200653575738     -0.04837905704438      0.01116542565436
  C   3.26740871306151     -1.36080155073972      0.01203878240504
  C   2.44668139698612     -2.57385969231757     -0.02215930433237
  O   1.20778357207135     -2.60196136407661     -0.05291570112545
  C   3.22179401468409     -3.79156754832332     -0.01370073182546
  F   2.52647947673946     -4.94862455351763     -0.04377073342946
  C   4.57890809504073     -3.82498529832941      0.02214417448681
  C   5.36066559700283     -5.11264367179455     -0.00108256147591
  N   6.44295898923598     -5.05529708611738      0.98210386705787
  N   5.31298333968970     -2.69028621530425      0.05450843938282
  C   4.66489635600562     -1.54418854438910      0.05250426867977
  S   5.83089815857324     -0.21418914821458      0.10178193173977
  C   4.80599496037764      1.18683747741087      0.12708131020828
  C   3.41352434402514      1.10458802669789      0.07330851160452
  C   5.45733944089429      2.43193680649567      0.19441304211919
  N   5.99630217542767      3.45413135266701      0.25027571457923
  H   0.67444655103139     -0.37956303439320      0.77934342348990
  H   0.75853851735748     -0.35334787868287     -0.95007402567819
  H   0.91592048845011      1.17732880778425     -0.05354967246843
  H   5.72959648217730     -5.25062348774265     -1.02756524631097
  H   4.69704317622883     -5.94625104011447      0.22530151747469
  H   6.84979495967408     -4.12562450065931      0.93813108798990
  H   7.16917944687092     -5.71908432116168      0.74489684773553
  H   2.88759994501201      2.05259011851628      0.08156001252282
