34
Coordinates from ORCA-job 22125optt
  C   2.13623191852792      1.39109171339458      0.42841267889454
  C   2.60770148660695      0.01258662964747     -0.04935597957208
  N   3.72048098691077     -0.46881377833612      0.79159879359057
  C   1.44136330674008     -0.97375773341075      0.10647905373435
  N   0.97444538877313     -1.04224602292767      1.50200592511286
  C   3.04911932918453      0.06545104485265     -1.52443985841581
  N   2.96240063118459      1.26293257738019     -2.08042201120615
  C   3.36130881286852      1.39949598558804     -3.37863831596983
  C   3.67562307344942      0.29391420007673     -4.19187543599572
  N   3.78727105968641      0.69144152970720     -5.54203146202528
  C   3.92959763465163      2.15872811363275     -5.51891299875271
  C   3.15109293747183      2.58901857537146     -4.26503979993505
  C   3.75476738130791     -0.92925634691104     -3.61876769915143
  F   4.08912198567123     -2.02688738730287     -4.36646193018950
  C   3.49631413796049     -1.10079740594597     -2.20812121385177
  C   3.68536508940091     -2.44887547913775     -1.63754377547786
  O   2.53517654587202     -3.32135535826113     -1.90839361626010
  H   1.89611381393420      1.33732369591973      1.49393542685545
  H   1.26475343205057      1.73086214182148     -0.13302419289611
  H   2.92098608694901      2.13029887615631      0.27689077256477
  H   3.40246097728343     -0.48497572422615      1.75610470687670
  H   4.48960723385438      0.18906161263779      0.72307110543278
  H   1.75903921186956     -1.96919691982224     -0.18940572137047
  H   0.65353462660915     -0.66735240650358     -0.59097814291871
  H   0.42601301992530     -1.88165495303398      1.63857402149301
  H   0.36910537512027     -0.25868158230287      1.71460821938442
  H   4.51046032491579      0.20726656507564     -6.05524001836790
  H   3.53803988031374      2.59215710956246     -6.44186077785163
  H   4.98163117680432      2.45434361320324     -5.40862613956701
  H   2.08563174444678      2.74629035126755     -4.51702907763152
  H   3.52714566183134      3.53099586089632     -3.85694639359098
  H   3.84334223399297     -2.39811929051842     -0.56198536346449
  H   4.55628175124403     -2.92875254205768     -2.10125384770582
  H   2.84147174258670     -4.23153726549334     -1.82232693177145
