26
Coordinates from ORCA-job 22137optt
  C   1.43675259647659     -0.40042309338199     -0.32285098006557
  C   2.88433686731366     -0.20949148633475      0.10325769270904
  N   2.99118036187197      0.40490848988844      1.41184870336374
  C   3.53246328848253      1.65542464118859      1.46930712022573
  O   3.57977273157946      2.33636522696730      2.46630475274117
  C   4.07005781740118      1.98966768069527      0.07310875221266
  C   3.70813107379695      0.75188951980087     -0.80764640812409
  N   2.95083353165151      1.25915269148123     -1.94617396479155
  C   2.46688988940881      2.54814871065413     -1.52033210808980
  C   1.87445266472165      3.48755195384390     -2.39387957650446
  C   2.27199599770712      4.78890479124710     -2.20405962036382
  F   1.61664995311270      5.73957724196330     -2.92354723432572
  N   3.21191433065458      5.26905284019878     -1.41948923292381
  C   3.90772556733787      4.36936812195793     -0.65729517527578
  N   4.99398767947687      4.62003643882740     -0.01066852045114
  N   3.37025661110157      3.07459474013680     -0.56075572555402
  H   0.91268893429996     -1.01677899753195      0.41268725688630
  H   1.38793780504636     -0.89100244446897     -1.29426081148214
  H   0.94072607721099      0.56664431949352     -0.40724882994511
  H   3.37472379277485     -1.18845555256394      0.12495470028594
  H   2.49542228406421      0.05271095908115      2.21560728148003
  H   5.13198891971832      2.22823780030213      0.14413772841252
  H   4.59756324418442      0.23388698811003     -1.16175342790986
  H   3.58035405943328      1.38231074917805     -2.74375483227993
  H   1.13710620121611      3.21553665717000     -3.13238741299926
  H   5.22408771995631      5.59418101209559     -0.18311012723104
