27
Coordinates from ORCA-job 22144optt
  C   1.77276425478788     -0.90574145701370     -0.84904181587791
  C   2.66121225102490      0.09295928416895     -0.09187117373187
  C   3.81286354998386     -0.59924415975664      0.51111205591045
  N   4.67644688822013     -1.16060015915874      1.01924301402490
  C   3.04568665870841      1.30666369032156     -0.92261295281995
  C   2.59076237902616      2.52607167420364     -0.47525030239680
  C   2.82827286922584      3.73137785929393     -1.20607196938579
  C   3.47625475579221      3.63045458432925     -2.47879254669441
  N   3.57317887992360      4.75528245783596     -3.30326994071455
  C   3.91835857344989      2.39837498808966     -2.88341028143879
  Cl  4.62988364415058      2.27824267602472     -4.49381183403186
  C   3.77239362724110      1.18241216153743     -2.12764004838132
  C   4.48938796751806     -0.05779710683190     -2.57227345903230
  C   2.54817897918062      5.02969743230498     -0.62242256520197
  F   2.00159547831405      4.95729471518527      0.60456666498640
  F   3.65850743158882      5.84834937427939     -0.47904122372995
  F   1.70494777758522      5.84286541352637     -1.34782634409178
  H   1.47046052860469     -1.73299890761987     -0.20461835099656
  H   2.28705474508859     -1.30719804737351     -1.71972846237453
  H   0.88668437257255     -0.37274575823607     -1.19321201723356
  H   2.08831775033352      0.46718922250341      0.75973807364839
  H   2.02581597910916      2.57829864625276      0.44681039313724
  H   3.58504035259872      5.63294590633310     -2.80677673556793
  H   4.31561853848271      4.69279038346894     -3.98306293018139
  H   5.55655987034895      0.13590418297473     -2.73220280548501
  H   4.10647074029569     -0.45111422421339     -3.52243266043971
  H   4.42828115684384     -0.85473483243035     -1.83409978189930
