36
Coordinates from ORCA-job 22153optt
  C   3.31012723323985     -0.99527509844529      0.31356337679676
  C   2.34577718845299      0.05964927982356     -0.23398181464036
  C   2.99841112393540      1.34261434612398     -0.60381367316790
  C   2.46011657008914      2.62475669069474     -0.39622315978544
  N   1.52342118240189      2.76232190075381      0.68250835928551
  C   2.17040052038204      3.08441046628885      1.95319157157871
  C   2.89728872410502      3.76449273015844     -1.09312628631952
  N   2.58028900445187      5.04849144520496     -0.91872721781208
  C   3.88085023491967      3.49092328239076     -2.16655825491076
  N   4.36800082244341      4.57825685137146     -2.93345907585537
  C   3.86157696944554      4.63639979070064     -4.31108203193216
  C   2.35000218012344      4.83062679534810     -4.37703183720646
  C   4.59592327599309      5.75915206312423     -5.03046942443952
  N   6.02270019949595      5.45268690426783     -5.10743603719902
  C   4.29094894186039      2.23791022919890     -2.34993991565036
  F   5.18375818308305      1.89830145279431     -3.28901648166711
  O   3.86140238988057      1.14678334508938     -1.71863227891505
  H   2.79473373342383     -1.93886168062016      0.51636954657877
  H   3.77084635328043     -0.64128522023114      1.23818045387690
  H   4.10856486467314     -1.18964935893930     -0.40441223277607
  H   1.57528428168066      0.28907142879411      0.50197832055691
  H   1.83559710166319     -0.36779895904910     -1.11633402822479
  H   0.86780709149741      3.49659060718432      0.44185668426235
  H   2.77439229898705      2.22817060893578      2.25885055613119
  H   1.41201112633741      3.26122697154432      2.72023358501185
  H   2.83086616606609      3.95952504176551      1.89263813332641
  H   1.96620706329312      5.15775387355451     -0.11633964246503
  H   4.02962449607218      5.40328617341882     -2.43251995034698
  H   4.13594908624672      3.69477828965495     -4.79496015499001
  H   2.07180884379241      5.77820220429214     -3.91039432912845
  H   1.84551757231403      4.03915240273463     -3.82128688985261
  H   1.99651128239761      4.81938376842014     -5.41139847265739
  H   4.38097158321046      6.69425741854324     -4.49157558832492
  H   4.19145003231843      5.86582002124922     -6.04112335331521
  H   6.29433524760969      5.08017413656576     -4.20094329663637
  H   6.56752703083269      6.29069979729347     -5.26558515918638
