33
Coordinates from ORCA-job 22161optt
  C   1.09436265634165      0.25493119932717     -0.15349450510793
  C   2.59685014260508      0.13478653644756      0.06680516637187
  C   3.09413858849625      0.97358603610919      1.23918642089047
  O   2.50677225496304      0.40976790673318      2.42517608553808
  C   2.49030705980492      1.30323168778180      3.51410152082618
  C   2.35374561643531      0.51396432346228      4.80362944122569
  C   3.45775791430621     -0.51793958175381      5.01484919033834
  C   4.84801597452729      0.09203743788564      5.06615580554005
  O   3.19600331584200     -1.27668778244677      6.19745193978475
  C   4.58416891079219      1.02319207194197      1.36087416037065
  N   5.26916088139104      1.86926851173469      0.56105700732803
  C   6.58892746942949      1.69655628039206      0.36638774685846
  O   7.29049801829444      2.40162522331218     -0.34777740653266
  N   7.27464710256817      0.59889160161273      1.06337071639353
  C   6.52391643258846     -0.25747586243603      1.58352362089608
  F   7.05422217164128     -1.32918848643788      2.21427009591937
  N   5.17385559556449     -0.27102908802975      1.61386314915440
  H   0.76019489012099     -0.36041273580972     -0.99156697517400
  H   0.82035053154251      1.29030873935000     -0.37079393953707
  H   0.54975200210934     -0.05673097665305      0.73867181257530
  H   3.14811838340077      0.46681702252679     -0.81603603441402
  H   2.87368858289268     -0.90701218770758      0.24802393067395
  H   2.74805375215798      2.00638328392281      1.10819988710351
  H   1.64814335550008      2.00110247517200      3.40910060038716
  H   3.41179735465065      1.89554974422210      3.51775195318690
  H   1.39500843342551     -0.00990212637316      4.82076396474903
  H   2.36051640032051      1.21612533020213      5.64661265650833
  H   3.40338415862774     -1.24642200280241      4.20433006310186
  H   4.91013128631404      0.81045797923684      5.89078006312732
  H   5.09243342052566      0.62240149737825      4.14384364054005
  H   5.59507240375630     -0.68584211800744      5.22601139605484
  H   3.32787405514304     -0.69396863215531      6.95230122759274
  H   4.72913088392072     -0.86437330813849      2.29857559772864
