31
Coordinates from ORCA-job 22160optt
  C   2.25962712216879     -0.98864847584564     -2.28365638976186
  C   3.33465803478075     -1.47582830551371     -1.32852750482489
  N   2.76689041173941     -1.86239092453263     -0.02238074895037
  C   3.63898905477431     -1.49590679987123      0.83780430058298
  N   4.76386793942754     -0.88159548691746      0.38227094659313
  C   5.67408978566181     -0.10179849047393      1.20134675252326
  C   5.68624448256061      1.36759185478144      0.86958186186421
  N   6.51418142059312      2.10595685995396      1.66110917263411
  C   6.50890391392821      3.44200553022968      1.32141922204262
  C   5.74308262547498      3.90891370987772      0.29231130188143
  F   5.78664915458327      5.24438078618389      0.01865145156737
  N   4.94228576936052      3.20871716208695     -0.49955090390638
  C   4.94116992172097      1.86692608028632     -0.16446708862930
  C   4.04076639944066      0.99419632327398     -0.99980514160270
  C   4.47813748910205     -0.47129758687154     -1.00384676657746
  C   5.71552910802364     -0.68666110828742     -1.87301412639181
  N   5.39039411159911     -0.58166596431443     -3.29621473568616
  H   1.56244318839181     -1.80116145919816     -2.49285298918601
  H   2.69474300534339     -0.63245165692631     -3.21858814294713
  H   1.69611795756014     -0.17130613600809     -1.83570386130612
  H   3.79820208378481     -2.38145955993083     -1.75330672309197
  H   3.53287628113785     -1.66938022854382      1.90484123475591
  H   6.69534863168421     -0.48805471526277      1.09798517977424
  H   5.39918274984696     -0.23550947368688      2.25157938844271
  H   7.12801406138730      4.12185699263409      1.89360900450812
  H   4.03066537343161      1.37451550819980     -2.02398056508893
  H   3.01444040203667      1.06649130056633     -0.62342763297415
  H   6.15001235635111     -1.65709754230112     -1.60007298912640
  H   6.44562885451426      0.08916298652247     -1.63161792335508
  H   4.92052026191658     -1.41996669841115     -3.61834743372576
  H   6.23133804767347     -0.47753448169949     -3.84814815003759
