31
Coordinates from ORCA-job 22178optt
  C   1.30746933240199     -1.09340104432117      0.03689288114721
  C   2.69345080970650     -1.48655469415456      0.54530212026338
  N   3.18729955358580     -0.79762883693463      1.70116322796780
  C   4.62804798927496     -1.18896275636786      1.47148288677717
  C   4.65512727369717     -2.59789061643288      0.58560478625119
  C   3.22460111825201     -3.00230132235474      1.04715400146194
  C   3.76782070630409     -3.52616866734691      2.50040138230859
  C   1.77923204881929     -3.54644990769528      1.23610674103990
  C   1.44291624012142     -2.52636670212456      2.39469897492071
  C   2.31316301862383     -1.40078467177069      2.74119771935596
  N   2.29167181671983     -0.83084721282215      3.90131452078102
  C   1.42017080443315     -1.30197822843866      4.87141538460391
  C   1.46459750214491     -0.67748616119863      6.15135589157443
  O   0.79537736611249     -0.93323346025489      7.15968808495216
  C   0.56299335251701     -2.36681818819285      4.48690563931549
  F   -0.32825249980463     -2.82606953259490      5.37896544212722
  N   0.56866453866508     -2.95958588846144      3.34430713106457
  H   1.37984192742259     -0.03420099639746     -0.22584893081819
  H   0.49213655961701     -1.21669862847959      0.74196186434853
  H   1.07653103021051     -1.64170930266886     -0.87871354716589
  H   3.31208166423445     -1.23852487384166     -0.31527399006473
  H   5.19261241504713     -1.26372233824251      2.39592974115878
  H   5.05692737489308     -0.38813111934816      0.86953065286995
  H   5.45590857737218     -3.24722999664977      0.93199787742831
  H   4.81632056652167     -2.38150798387228     -0.46895746464910
  H   4.35504562465882     -4.40649969179711      2.22184072096702
  H   2.99349745794812     -3.85529102769431      3.18317777057544
  H   4.41280217605250     -2.86049907363031      3.06399278623794
  H   1.69831342171884     -4.56026480680850      1.63287012820714
  H   1.11929954779639     -3.46242516298185      0.37331562697793
  H   2.22133068493173      0.13223289387924      6.17721994801420
