27
Coordinates from ORCA-job 22176optt
  C   1.54829730097486     -0.68777083921687      0.24382507182977
  C   2.98941758187428     -0.29157368301922      0.08822587596448
  N   3.89224496797449     -1.32165014117562     -0.05030299790658
  C   5.15008128806926     -0.91747685656745     -0.19028464512975
  C   5.61910967911500      0.37869328542549     -0.17784302240066
  S   7.37210349137220      0.40843268876347     -0.20738163007755
  C   7.45690458612687     -1.36567391216149     -0.27036169063112
  O   8.48426451714078     -2.02036023591886     -0.30274157973941
  N   6.18808557068904     -1.86398047630595     -0.28800671302851
  C   5.93331738167146     -3.28614673310408     -0.22066404865257
  C   5.65152050496525     -3.69397563155018      1.21709265574861
  C   5.35589477457564     -5.14430299503765      1.41106091118567
  O   5.32507396871333     -5.97527158815566      0.54222337008866
  C   4.71461691240033      1.43225025293170      0.12230084824140
  F   4.96542610350575      2.67876669125124     -0.47173487956766
  C   3.34270645970232      1.03358457971102      0.14711378357887
  N   2.35368260651912      2.04719198877179      0.25701430949483
  H   1.43618498983926     -1.74162620860915     -0.00503572548648
  H   0.90001577675262     -0.09437719122387     -0.40601147154971
  H   1.19214186633375     -0.54560672353012      1.27306990877608
  H   6.80939279229662     -3.80132893487121     -0.60928983961861
  H   5.06979639200584     -3.51085918175609     -0.84438461571411
  H   4.79321626696748     -3.12134227218482      1.58885995121035
  H   6.49767799916373     -3.43486657973465      1.86434023413055
  H   5.14831386997719     -5.44015373589564      2.46076166219699
  H   2.78421350438118      2.92819870007081      0.50695977116303
  H   1.63929884689219      1.81522573309309      0.93619450589344
