31
Coordinates from ORCA-job 22185optt
  C   1.25741614375018      0.87218476213046      0.49061808074617
  C   2.66513359347122      0.34348227230674      0.21124938202347
  C   3.02571792071003     -0.82842928444390      1.09894162383184
  C   2.71946746431469     -2.13794486524651      0.77319025217253
  C   2.00420702250445     -2.55025446294014     -0.49600675630354
  N   0.78520199606508     -3.34429656164029     -0.29869321907257
  C   -0.24734271078824     -2.62725773106671      0.42232486869518
  C   3.09909222819900     -3.24094437483296      1.63763641053386
  O   2.86782796873832     -4.42754772395805      1.31337253676050
  C   3.74714638631569     -2.90287740457244      2.90667655904260
  N   4.05674212589388     -3.91047053408794      3.76928872005860
  C   4.59032822213509     -3.54869828491660      4.96161179735426
  C   4.83555137562593     -2.26118727428054      5.28429276737383
  F   5.33979238696256     -1.86119741484024      6.46869550409625
  N   4.64261621449959     -1.23174193277293      4.40328685428373
  C   4.00396093654224     -1.54041711601698      3.18207827104637
  C   3.67549231311017     -0.52242328323004      2.30763513172186
  H   1.01871864872004      1.73578025054698     -0.13541658845237
  H   1.16997482620993      1.16872241122514      1.53757038121569
  H   0.51517229590064      0.09497520186196      0.30729003429707
  H   3.38789093301768      1.14497450965641      0.38623675927566
  H   2.75309296446396      0.07667183835090     -0.84267239819519
  H   2.67598432145982     -3.17315536132880     -1.09360610680944
  H   1.73664278250531     -1.68084173072709     -1.10185055488759
  H   1.08522771545300     -4.14760469436205      0.24856225298160
  H   -0.65139842560646     -1.83015313126702     -0.21082195688610
  H   0.10014791848040     -2.16979726436273      1.36071779704957
  H   -1.06809185142656     -3.30789337578131      0.65546120852110
  H   4.82926328480190     -4.32524621562915      5.67929992875564
  H   4.48490481401019     -0.31326323731908      4.79036811858222
  H   3.93411818396018      0.50385201354496      2.54766234018714
