22
Coordinates from ORCA-job 22196optt
  C   0.92579508709018      0.07506481126822     -0.31430722410797
  C   2.41363121309382      0.00028636368831     -0.13121896407714
  C   3.07163190599278     -1.15788419351243     -0.24616891976063
  F   2.41821569940690     -2.31405579170851     -0.52647288096312
  S   4.77279457471582     -1.48676651796175     -0.05523663853780
  C   5.40646330669158      0.13212946398208      0.18451563067289
  C   4.57804752806672      1.26765885840149      0.29548966685885
  C   4.85708115394560      2.64100899024681      0.51061444156767
  N   3.73988233812861      3.37060107222496      0.51826321238748
  C   2.70337172018901      2.50699776460513      0.30501202240056
  C   3.14398781168310      1.20585045566616      0.16113584244825
  S   7.08163294891784      0.23781422272720     -0.04712331847772
  O   7.66582630587159      1.36143369121246      0.64409305311516
  O   7.69176334788750     -1.06870939014113      0.08366178569981
  C   7.39497007834767      0.64022722495671     -1.81718800818625
  O   6.57168295439833      0.62950903319885     -2.67191151279693
  H   0.48852279078579     -0.90229242789240     -0.50490705272015
  H   0.68673895402895      0.74114695804490     -1.14634183444414
  H   0.46674114759672      0.49966174113464      0.58153836924229
  H   5.82873210233477      3.08207137375701      0.66892722760780
  H   1.68382379361368      2.86502250413258      0.26063063216363
  H   8.46466323721300      0.88022379196870     -1.98800553009256
