26
Coordinates from ORCA-job 2219optt
  Br  0.88799849783977      0.09616353320202     -0.58674382478956
  C   2.80719697600107     -0.08965493343106     -0.73059987678041
  C   3.42437805963244     -1.22943238874501     -0.18761536076000
  C   2.89099726949183     -2.64480409020445      0.00563420999788
  C   3.64720523245056     -3.50179977343951     -1.02848955171700
  C   4.29402978922182     -4.80529482478258     -0.65419388673130
  C   5.06842347724355     -3.52063190104171     -0.53474769276224
  C   5.03168672683810     -2.67521703448880      0.74852495578315
  C   3.63122258369904     -2.97268884636263      1.32185576382847
  C   3.39040564069010     -4.26600337944889      2.03700831306269
  O   2.33089920068323     -4.82889752399382      2.12283753401519
  C   4.76690775120307     -1.26026407203554      0.24586224425879
  N   5.68266064049364     -0.33049217775784      0.16852581595637
  N   5.19785466992703      0.79840086318278     -0.51559705132669
  S   3.64218249144854      1.35299290375866     -0.21821316071622
  O   3.46056605458162      2.48181798983884     -1.09474873880591
  O   3.44756646829547      1.60580140373009      1.19085079097585
  H   1.80950607910185     -2.74689933768258      0.01978450885068
  H   3.43185715473850     -3.30905071352409     -2.07010710450204
  H   4.58051132922736     -5.43832435412997     -1.48520833241368
  H   3.97291566120036     -5.37235450637799      0.20653272847095
  H   5.89001870497624     -3.34111644328609     -1.21422339182785
  H   5.88354620103971     -2.76944561945155      1.41926110292062
  H   3.38567055134912     -2.21029647393531      2.07064595989784
  H   4.27365690942090     -4.66473121418979      2.58374503136173
  H   5.83613587920500      1.58022291459685     -0.42658098624730
