29
Coordinates from ORCA-job 22192optt
  C   1.14998183668856      0.56299951427078      0.08890907212697
  C   2.52157692648225     -0.09031101972241     -0.02147664881449
  C   2.39070597735052     -1.61265007137624      0.05740089255236
  N   3.12367516341581      0.30811092689515     -1.28130186333476
  C   4.39973771474789      0.27499967680905     -1.37654158197607
  N   5.28522480229231     -0.06278341210158     -0.38632063887001
  C   5.05034390639777      0.74223602705925     -2.66516099640550
  C   6.05067022060110     -0.20939179998207     -3.27333666870977
  N   7.07864056620612     -0.55019761283663     -2.44672109146256
  C   8.10212326149670     -1.32570516692906     -2.71824470837412
  O   8.98739678925870     -1.70828940142474     -1.97847795925458
  S   8.34626666139011     -1.98388706847772     -4.47347267145960
  C   6.90803832118806     -1.39037178367461     -5.22071462200865
  F   6.75568607834740     -1.77252622774523     -6.50918971799895
  C   5.93491928111050     -0.61814505786806     -4.61530210507924
  C   4.80966588329510     -0.24088581765036     -5.41235180971920
  C   3.87029562997116      0.06622276285463     -6.09619791938641
  H   0.65036015633148      0.28172725136659      1.01915281653721
  H   0.53131458229925      0.25052639328523     -0.75460774399148
  H   1.24345868576784      1.64871090238489      0.05187171382003
  H   3.12417559682751      0.25747709490151      0.83217277741582
  H   1.74177888786179     -1.95797185819446     -0.74958413167048
  H   1.95856942019074     -1.92434489074250      1.01145741418315
  H   3.35682702132496     -2.10462012303319     -0.06687964249184
  H   4.94666264463150     -0.61112672548310      0.38511675878280
  H   6.21842692795240     -0.29389057397864     -0.73285274802191
  H   5.57675787346166      1.67639990338167     -2.42581797466240
  H   4.24979036605549      0.96926188053301     -3.36193046101453
  H   3.02992881705522      0.33242627747885     -6.68859774071179
