27
Coordinates from ORCA-job 22197optt
  C   2.30334322444818      0.46664472434499     -1.63936055038016
  C   2.49343796238268      0.05522478552026     -0.17103942400307
  N   3.50200924829826      0.94636814880816      0.41710155846146
  C   1.23725446721344      0.26409997102743      0.56943076323703
  C   0.23098080598915      0.45928893004503      1.19099923376045
  C   2.92046927413757     -1.42534017468560     -0.10938421797615
  N   4.18627588865778     -1.66903122847760      0.26391286799206
  C   4.60987671731184     -2.94513653447666      0.27491936808391
  N   5.84877096289625     -3.27896088152018      0.64084888785370
  S   6.03566579728768     -4.91626279325914      0.54117687931273
  C   4.43552473233277     -5.25034784583399     -0.00180752569792
  C   3.74944364095881     -4.05868809416211     -0.10005074670498
  C   2.41765821918352     -3.78165577577615     -0.49804773991960
  C   1.51540266647020     -4.88665940779110     -0.92563385531386
  O   1.91900345246183     -5.48996892140474     -2.16387830978625
  C   2.06083364697373     -2.44104174838794     -0.49723201038300
  F   0.80576323466797     -2.11276926404636     -0.90446137256190
  H   1.99277745652145      1.51026621054800     -1.68899123328589
  H   1.56222430393458     -0.16612836430365     -2.12435865733313
  H   3.26061921411329      0.35167902747464     -2.15050394802621
  H   4.40348745320855      0.54154737743099      0.16706340665356
  H   3.46413443895404      0.83525374469320      1.42595011094365
  H   -0.66571616350546      0.61071608488333      1.74016092857472
  H   4.08224972513394     -6.25118769738748     -0.19825090423887
  H   0.49897723627690     -4.52482924208009     -1.07132425798455
  H   1.49880526113393     -5.66523139477674     -0.15092143949659
  H   2.87572713255672     -5.39184963640616     -2.21931781178112
