31
Coordinates from ORCA-job 22203optt
  C   0.87540777221366      0.08299235208648      0.06936056873739
  C   2.39100230454572      0.04893113709153     -0.09004582687708
  C   2.78586639763690      0.19726152262246     -1.55991531557425
  C   3.06718107306036      1.14353919418241      0.74124126291386
  O   4.37150214997534      0.65104682394528      1.03519241977529
  C   4.26450390264806     -0.74199818676683      1.28587252324395
  C   2.99753591184766     -1.22532870981780      0.53817927447190
  C   4.14068503378622     -1.06114399557273      2.81649532427537
  C   5.41422011321688     -0.68982356130778      3.58737054465224
  C   5.38313927695662     -1.15221065606387      4.97533213808133
  N   5.46923053603501     -1.54191421453477      6.05239749796501
  C   2.96806579899651     -0.35680209363126      3.47321194056663
  O   1.75503255952465     -0.57981280021378      3.11242313069885
  C   5.51414001545526     -1.34566408883638      0.63939658549234
  F   6.65087035369212     -0.71607467127554      0.97609045554775
  F   5.66866051108271     -2.63821391910679      0.98053209273432
  F   5.48045222377712     -1.31862557273597     -0.70729071864088
  H   0.46976588942720      1.03527653934343     -0.28623417267608
  H   0.62065402057676     -0.05202092819849      1.12242760503994
  H   0.41149459859437     -0.71476419286543     -0.51745958942110
  H   2.33184638874036      1.09697747905227     -1.98476563934804
  H   2.44349657675047     -0.66167895636411     -2.14274006726931
  H   3.86810574409416      0.27403481761483     -1.66922633462842
  H   2.51413642339026      1.31393177807240      1.66693026760086
  H   3.19019763609487      2.07947438210459      0.19164003015003
  H   2.30544711582062     -1.64179433147844      1.26634009424974
  H   3.23296139996404     -1.97171768438986     -0.22136455149482
  H   3.99338472487607     -2.14858059471029      2.87332856474065
  H   5.51174921873670      0.39959672362741      3.58814621489617
  H   6.32229910941643     -1.10060586039798      3.14937778044882
  H   3.24096521906679      0.56771226852505      4.00975589964748
