26
Coordinates from ORCA-job 2220optt
  Br  1.01408779215931      0.36059109549417     -0.32566648847165
  C   2.96049641051325      0.25476240145333     -0.95993990178087
  C   3.70356921158646     -0.83770555241863     -0.52582303746670
  C   3.32784295612695     -2.27059113510250     -0.42068983744743
  C   2.48414610290144     -2.71287243933893      0.79136624661671
  C   2.90355086230536     -4.17703461798360      0.94806247332258
  C   4.37597799922844     -3.79534312477350      1.16279941811030
  C   4.68977958735758     -3.00151586257356     -0.13612574776688
  C   5.78013160549032     -1.91576514161056     -0.03981162729716
  C   5.04818093873614     -0.61444484866989     -0.27274250691025
  N   5.65336675988700      0.56052946756376     -0.25066363827477
  C   4.87175465729454      1.64960983325675     -0.50029290713375
  N   5.20713957007222      2.87545591506623     -0.40934628101194
  O   3.55625227406520      1.46120661764999     -0.96604432527476
  C   4.19378289248651     -2.75960987364122      2.25625344174021
  O   4.88968693063304     -2.50823079788804      3.19553061291356
  O   3.03957997908344     -2.11524077047812      1.98593429175531
  H   2.83142522811036     -2.64777511093922     -1.32047143139003
  H   1.42974237038951     -2.46306103029747      0.75429615425427
  H   2.73721436625987     -4.76257610559562      0.04426881793787
  H   2.44342065788353     -4.66470875598571      1.80781270107795
  H   5.09196939276620     -4.56606961609102      1.43116429587993
  H   4.91586240127153     -3.72213385459027     -0.92239542516515
  H   6.56075997537046     -2.04903877424325     -0.79259813737931
  H   6.27696208616714     -1.90285840723710      0.93423400330027
  H   6.17231699185410      2.88742048897401     -0.09111116413829
