32
Coordinates from ORCA-job 22214optt
  C   0.72714410852144      0.57388960450380     -2.15869553393424
  C   2.22716672752904      0.33674181072917     -2.27994993299643
  C   2.86519173103367     -0.04410120212176     -0.94178998754743
  C   4.33854254503902     -0.31624666795781     -1.07554603527307
  N   5.15912797237232      0.61680466965166     -0.64748764654416
  C   6.49057325001156      0.46104341580121     -0.79975694689587
  N   7.34089109668233      1.49832790320400     -0.32363800261987
  C   7.35464260846449      2.77386017547652     -0.78734642377025
  C   6.57453530317281      3.01919894521705     -2.05637603035814
  O   7.96323507765185      3.66663300824888     -0.21370891315797
  C   7.02442144213757     -0.67105807086943     -1.42826047830290
  C   6.16747505784066     -1.64490667642550     -1.85228497057315
  F   6.69827117373029     -2.72845292842367     -2.48254675394117
  C   4.74925218756850     -1.55945317835744     -1.68646379130564
  N   3.81267181879472     -2.46927029226199     -2.01338714917647
  C   4.00574705077137     -3.65202296014823     -2.52754377143646
  N   2.86717326878836     -4.42386511814467     -2.89981414016301
  H   0.28289804364032      0.86139842376083     -3.11406295738121
  H   0.51419150022570      1.36664731273890     -1.43670114253628
  H   0.22244293307918     -0.33161726123006     -1.81325029942523
  H   2.71806467676109      1.23812763952473     -2.65853771962975
  H   2.42399648376626     -0.46456372115925     -2.99470010661666
  H   2.36111874378281     -0.93698057055300     -0.56140005271014
  H   2.73645280085204      0.77044755043736     -0.22584052261123
  H   7.81683892346313      1.38864848675947      0.56278564427824
  H   5.50798152471638      2.99669701285111     -1.82831689080391
  H   6.75744693757061      2.22838696415112     -2.78444406123292
  H   6.85867899588072      3.99077835997864     -2.45159911199934
  H   8.08927367551466     -0.77838723600865     -1.59209250395549
  H   4.96205082029605     -4.09275588519326     -2.78410156663087
  H   2.03901677136458     -3.96468481909631     -2.53662044975422
  H   2.90448474897620     -5.36726469508341     -2.52852175099465
