24
Coordinates from ORCA-job 22219optt
  C   3.53290540867804      1.01086927582476     -0.48494109198967
  C   2.62756957198990      0.01175705739376      0.15774071470790
  N   1.37855960809093     -0.06308785207283     -0.07414866002198
  O   0.95667081289311      0.89482034225783     -0.99315795285963
  C   3.18026192846213     -0.99800324295837      1.12193287327985
  N   2.28327393916550     -1.82976471687077      1.69050658055289
  N   4.45095165805284     -0.96432779804492      1.30624173821994
  C   5.14092225546452     -1.87039436255840      2.11998950998539
  N   4.50735832064461     -2.89754262857924      2.64809134205218
  N   5.15332634108515     -3.83247547398048      3.38696136553903
  C   6.44602447455915     -3.64654998616783      3.55338936007657
  F   7.04505626036447     -4.62149793095337      4.27309612464235
  C   7.21107628684830     -2.61222164275920      3.08898221626503
  C   6.54369124718036     -1.63094982283440      2.30972024422222
  C   7.23956971873297     -0.51318932621933      1.77109555626929
  O   8.45417303953789     -0.29986333885168      1.93964900627319
  H   3.17386484525539      2.01973404844870     -0.27744977786061
  H   3.51134413646853      0.88043673002522     -1.56802339812668
  H   4.54233775396174      0.87732521449887     -0.11035805922664
  H   0.01642788744631      0.71502907290358     -1.07314769316445
  H   1.32778572309471     -1.78735181871730      1.38509812723310
  H   2.68458542758597     -2.59258672909559      2.23285731588141
  H   8.27008558221211     -2.54022298623384      3.28689025617894
  H   6.63317777222527      0.18405791554484      1.17498430187035
