27
Coordinates from ORCA-job 22224optt
  C   1.47252526311135     -1.05571932101060     -1.13359626030117
  C   2.70028939755047     -0.66137875972937     -0.37558569610099
  C   3.03586058243770      0.63313127423699     -0.10634095610993
  S   4.44363807235084      0.95364484676801      0.82191958996786
  O   4.95516227110981      2.27606878889178      0.53252253504590
  O   4.25584216348809      0.59420321328359      2.20744740221294
  C   5.48485246604630     -0.24380762938530      0.07802461163266
  F   6.65546873342050      0.17851615628272     -0.45007484443778
  C   4.97753665298752     -1.45028494458609     -0.27870028051871
  C   5.77400167160319     -2.43114125340303     -1.10450973846766
  C   4.97132734079140     -3.63850586252450     -1.57880227128192
  C   4.55102488351759     -4.56091694517857     -0.45250823887504
  O   4.41095585148631     -5.75105685669503     -0.62578142033365
  C   4.23339545384596     -3.88125047680281      0.85928766810873
  C   3.15182904886305     -2.84174325360129      0.60462092471236
  O   1.96421322096127     -3.07402337595210      0.81013800593643
  N   3.60395313776553     -1.68175899330243      0.01875980449802
  H   1.11945264822724     -0.20604295807122     -1.72095898988339
  H   0.67657232737105     -1.38536269074760     -0.46376965528911
  H   1.68350084209853     -1.88930131292615     -1.80646312932978
  H   2.55954166149346      1.47988419868470     -0.57954248915264
  H   6.64101072690558     -2.77956861818244     -0.52966832771895
  H   6.18781269478045     -1.91651058724907     -1.97623968078400
  H   4.05872644907677     -3.29326575492604     -2.07964000327459
  H   5.53407108040075     -4.23032761563151     -2.30069500888390
  H   5.12822596869067     -3.38319330344478      1.24596829789824
  H   3.85620938961855     -4.61328796479778      1.56718815073009
