30
Coordinates from ORCA-job 22268optt
  C   3.58510457741193     -0.95583265533466      0.12921836807010
  C   2.42612262927788      0.00258294186834     -0.14206786194505
  N   1.19977631474673     -0.70354202830568     -0.54282603250829
  C   2.08556589220146      0.78887772194094      1.12112624249280
  O   1.60001220756527     -0.11850728137319      2.11505753823184
  C   2.81121280277387      1.04486719869673     -1.20218535306553
  N   1.81584720410361      1.40358885503763     -2.08460610524784
  N   4.01624770664798      1.46908538814618     -1.18391707385863
  C   4.52258995180120      2.43322079986479     -2.05502161658585
  C   5.89183733061163      2.32320393709595     -2.43023593298889
  F   6.56185380090183      1.17270393307792     -2.13628226740737
  C   6.52420145363620      3.24915062816927     -3.23789094716081
  N   7.87720077189906      3.07708285292998     -3.64617877605122
  C   5.80016910636205      4.34381197765101     -3.64140875677170
  O   4.49575817159873      4.52499634827563     -3.23769203948927
  C   3.83508485551280      3.60701443536904     -2.43440805162587
  O   2.69537437745784      3.95380882073722     -2.09260228641722
  H   3.31709882277375     -1.63836795126203      0.93792581087814
  H   4.48436641145028     -0.40079623030356      0.38749989206634
  H   3.80147588746252     -1.53167387791873     -0.77265951917725
  H   0.88931502943060     -1.27004832439246      0.23880471025054
  H   1.40735791862622     -1.32869668038787     -1.31448397528790
  H   1.31975756379669      1.53181036850768      0.87980317982545
  H   2.98885441479006      1.29801580107562      1.46365744088415
  H   1.26731664122250      0.39215895473943      2.85596641466908
  H   0.90756082974651      1.05436524938715     -1.81797197066206
  H   1.85212289903598      2.39653154422101     -2.33381206476062
  H   8.18833865974581      2.14383690053352     -3.40944599723825
  H   7.95836011922073      3.19665585176815     -4.64850983986111
  H   6.21511564818816      5.20209452018496     -4.14585312925768
