20
Coordinates from ORCA-job 2226optt
  Br  0.91692752859083      0.33646626247584      0.24746293846816
  C   2.74666755026316      0.12599295823458     -0.13030532514570
  C   3.36497276319976     -1.09488415969281     -0.27215536801206
  C   4.72963364816410     -1.01875138861183     -0.57279745619666
  C   5.37353988223799      0.16201672326923     -0.73972840677755
  C   4.83143059996683      1.38774298849232     -0.28697189269515
  N   3.45418701925310      1.34970559978162     -0.17605725308674
  C   5.86536065451617      2.19849754392754      0.12389144769828
  C   7.13156967309420      1.39304277777081      0.10618223322622
  O   8.22168942488867      1.77227454246722      0.47587277453493
  C   6.70039076478563     -0.01380851578077     -0.33548097520672
  N   6.96544569455980     -1.28472878275770     -0.00583773362162
  C   5.73469577446070     -1.94233752852492     -0.15506391705865
  N   5.39504348300635     -3.15132187956547      0.23979882533783
  N   4.03022810779707     -3.34045107295596      0.17913837727677
  C   2.95071825827223     -2.46730685708553      0.05688800531767
  O   1.81051564806164     -2.87983110569956      0.22678052990964
  H   2.96401563623382      2.14052181392675      0.21259396618829
  H   5.82741257844943      3.19267597071737      0.54019967158399
  H   3.74955531019846     -4.26251589038874      0.47358955825908
