33
Coordinates from ORCA-job 22269optt
  C   3.80874467976313     -0.34352486629566     -1.46099096525230
  C   2.72735215823101     -0.17281799209926     -0.38874558990370
  C   2.89709662682705     -1.16464550469508      0.72838073225190
  C   3.70414946305819     -0.85022726156755      1.83773720426049
  C   3.90170087204776      0.49902679559460      2.43671160674820
  C   5.23935923445903      0.64665358110043      3.16549807260401
  C   5.34826830962869      1.91454660867754      3.97639857174722
  O   5.25066148139295      3.04376926444732      3.07814068149426
  C   5.33835660190107      4.24095038471702      3.62400524392861
  O   5.51158794721404      4.48338917211048      4.78656931207873
  O   3.75122021371442     -1.80088106709264      2.91523969044425
  C   3.31825548850478     -3.02089101473616      2.66063872678014
  F   3.59274638115763     -3.80891205552363      3.71763642118230
  C   2.67825873718249     -3.45712662795619      1.58007834258318
  C   2.22893940472297     -4.87902946141043      1.45323663575413
  C   2.40983179788528     -2.47086194473000      0.49804988002510
  N   1.79233506176832     -2.80629749318088     -0.62769671368185
  H   3.68196048595460      0.36597178204607     -2.28450781310563
  H   3.74935616853071     -1.35680786644211     -1.86029130550455
  H   4.79961506487942     -0.19734737344218     -1.02422943390862
  H   1.75331383481299     -0.35321665172431     -0.84806556951675
  H   2.73343654245816      0.85477329354930     -0.01841795281126
  H   3.09858526464831      0.71976531523833      3.17038047977476
  H   3.83204577625251      1.25518746453027      1.65689712382252
  H   6.05762992445286      0.59371710843254      2.44309615896902
  H   5.36428939200862     -0.19305284100727      3.85304433793060
  H   6.29750322764683      1.99127243303653      4.50881584181484
  H   4.54048927411736      1.99981426468430      4.70595289301952
  H   5.22739159914498      5.01140382587262      2.84914994996542
  H   2.51206767314924     -5.46376856094829      2.32686075181871
  H   2.66423304937048     -5.34744897092097      0.56642166684345
  H   1.14166865385545     -4.93247258265532      1.34158590911649
  H   1.50054960925850     -3.77791115760936     -0.58758089127328
