25
Coordinates from ORCA-job 22279optt
  C   4.63320108580017      3.39008464168162      0.09912077686139
  C   4.60671105763021      1.89079359844003      0.11521670109405
  O   5.57837981103519      1.20193092767295     -0.08146067474707
  C   3.25408032747936      1.23542370388168      0.45575632019308
  N   2.99395761945661      1.51080208355407      1.87619370723264
  C   1.72792406013806      2.00626887460355      2.29296842109458
  C   0.57720372711750      1.28964915927526      2.61744251328394
  N   -0.45079772248969      2.08338252924904      3.01007815788520
  C   0.02576517094924      3.33495703304627      2.92451470936848
  C   -0.69206477296762      4.53137920398826      3.24981197047873
  C   -0.07926740427332      5.71357717375296      3.12871850133481
  F   -0.70064436783709      6.87811194770723      3.43301197307742
  S   1.55702485811878      5.95511787029652      2.58782993488990
  N   2.18210291278787      4.44789587925318      2.29372333498066
  C   1.39128476273684      3.36938211247484      2.48328159798109
  C   2.21134610985253      1.72353972566503     -0.44388303077714
  C   1.39085633514296      2.13749940800567     -1.21174077231739
  H   5.66276430880948      3.73844240568617      0.13067294156126
  H   4.04277762395458      3.78901262772297      0.92753643670529
  H   4.15853198358366      3.72790745141984     -0.82545502932994
  H   3.38482605936841      0.16315056647149      0.27789109717134
  H   3.29498920804525      0.72341712471942      2.43012586524167
  H   0.46428243463472      0.21194835113735      2.58660907197543
  H   -1.71657520053699      4.48360029203213      3.59898620020938
  H   0.64034001146323      2.51272530826234     -1.86395072544887
