27
Coordinates from ORCA-job 2227optt
  Br  1.46059989345403     -0.00946988974524     -0.02390206768562
  C   3.31379103074078      0.18668768941177     -0.32426372531706
  C   4.00494360637610     -0.36900523269169     -1.34367914570892
  C   3.42921877396308     -1.06928322296152     -2.55521841461443
  C   2.00725011459629     -0.83509137861280     -3.05588602509538
  C   1.31743518270768     -2.00027800575442     -3.64447379381088
  N   2.00183300484168     -1.05410940073080     -4.51604508890597
  C   3.38907470441671     -1.39711509977278     -4.89534659999646
  C   4.22559470989646     -0.71433297158457     -3.82265884852598
  C   5.66046330893083     -1.05012705024853     -3.62873842541187
  C   6.14050874175793     -0.86779587754288     -2.39356306322867
  N   5.39834224420086     -0.42522269126977     -1.30906402139314
  N   6.20704791294543     -0.24465841474927     -0.17411749594718
  C   5.54123891668352      0.04247077335042      0.97366824857014
  S   4.19025932599524      1.07291974443666      0.94311119562215
  O   4.38798849425185      2.40469806078083      0.39228567468912
  O   3.46466660601696      1.00717581558659      2.19539161816137
  H   3.58057097905253     -2.14314048294974     -2.38262087720392
  H   1.44988927919297      0.02173055654355     -2.71291090168509
  H   0.23827839665034     -2.01616111323984     -3.74098489582190
  H   1.77786462104809     -2.97183170424216     -3.49068401230011
  H   3.59082048641454     -1.02037311870064     -5.89834723990550
  H   3.56091061685079     -2.47968572263073     -4.88951505685361
  H   4.11220852126417      0.36898938976834     -3.97257274898672
  H   6.31075223320731     -1.35364396538629     -4.43647885452009
  H   7.17434185743616     -1.02456735976178     -2.12327574400763
  H   6.11210643710757      0.05422067269730      1.89189030988338
