30
Coordinates from ORCA-job 22283optt
  C   2.54516115617716      0.43546260610320     -2.21503875985071
  C   3.53175753302029      0.19434457930859     -1.07875539973080
  C   4.69669258203893     -0.67769678041568     -1.53197737168842
  C   4.02968638229392      1.52170065374152     -0.53479307978193
  O   4.85425261821752      1.26731164248211      0.57302708883391
  C   5.36671787136924      2.37360014372294      1.17966479887439
  C   5.19539093752301      3.69707430526029      0.82021908013876
  N   5.93839005513158      4.44681088571338      1.74632299647672
  C   6.52495163612328      3.58385027588508      2.69555109870478
  C   6.18228901208435      2.28300803983148      2.31802363814671
  O   6.56217757855971      1.11178906096340      2.94153932171175
  C   7.29565361730461      4.17981215218680      3.67094163756923
  F   7.95843663264038      3.37272776887103      4.55632881100032
  C   7.54086548879094      5.55128739411774      3.66582748338450
  O   6.56287921511428      6.31851941414591      2.94941134292999
  C   5.87309932827480      5.80528304482708      1.91488460596064
  N   5.16041971806770      6.53593737002043      1.14521395332478
  H   2.16207481697323     -0.50925483567076     -2.60533753730817
  H   3.03311750410008      0.96309492613876     -3.03903368623639
  H   1.69608428740404      1.03796271338121     -1.88659913449253
  H   3.01355766669560     -0.31382403516960     -0.25931881303210
  H   5.22658837475408     -0.19482726687550     -2.35824727855581
  H   4.34589477019708     -1.65194578645945     -1.87934584429154
  H   5.40483429201762     -0.82698214774063     -0.71801019809494
  H   3.18755006611807      2.15788389752728     -0.23311865333771
  H   4.59552909708203      2.06213547255046     -1.30787257762496
  H   4.62968472109717      4.18730483876344      0.05243943506258
  H   7.18939215330535      1.35750543615518      3.62913322920414
  H   7.83903163954991      6.07629960906635      4.56251467309449
  H   5.28283924797382      7.50382462156787      1.42640513960831
