31
Coordinates from ORCA-job 22284optt
  C   0.99176919032302      0.03197156982443      0.02703531563708
  C   2.51073013735169      0.14567294134764      0.04515563332879
  C   3.09210705903125     -0.02937219021300      1.44090428704871
  N   4.52478823918799      0.05947187721006      1.41385438135284
  C   5.12728550269202      0.01076437804616      2.58698274097713
  C   4.54500143343064     -0.15945889576501      3.87176027149465
  N   5.16963803088419     -0.13066571256246      5.04399356938189
  N   6.51619714201467      0.22896771002954      5.01657631923038
  C   7.11712752305623      0.81813164421458      6.09455991152284
  O   8.23023597238929      1.33990555293697      6.01076202503137
  C   6.43424875888899      0.77522617321309      7.45964080771883
  N   5.40731555760346      0.11884303774081      7.83373378383479
  N   7.12849996351266      1.55540639186902      8.34563327176379
  C   6.82834280688336      1.46870283186356      9.74810224984806
  C   7.20621530487145      0.07229787984872      3.80532764708972
  F   8.51895890457605     -0.13754521844021      3.91317330366842
  C   6.58101831788093     -0.00124610788701      2.63450230987025
  H   0.58397385952802      0.16915115284002     -0.97640132488854
  H   0.53734147733034      0.78252109393632      0.67840095901729
  H   0.67057570871760     -0.94867999614726      0.38649841683435
  H   2.82594561110402      1.11931671535868     -0.33844971846766
  H   2.95854136410801     -0.60441844395942     -0.61173715283278
  H   2.75160427134629     -1.00350831623420      1.84041501038808
  H   2.64562959687688      0.73126850552141      2.10798577881823
  H   3.49329368401925     -0.39763392843178      3.96579604511206
  H   4.99331643033436     -0.33476285099845      7.02415349302013
  H   8.04671116231495      1.82593316229005      8.03143288928624
  H   5.78546219168949      1.73645075250164      9.92320984806104
  H   7.47222159244596      2.15621093251226     10.29524710446730
  H   6.96480849042602      0.45307567339779     10.13708548278090
  H   7.14909471518075     -0.17499831586399      1.73166533960368
