23
Coordinates from ORCA-job 22286optt
  C   1.11613028486450     -0.00796341617956      0.32758439614337
  C   1.55386813876615     -0.94054446409132     -0.75223083714109
  C   2.90850127583213     -1.05159550997134     -1.27285796337456
  C   4.14138532084605     -1.18323325675375     -0.52487527057108
  O   4.73665922780411     -0.24698568257840      0.30368769755680
  C   4.75993203754153     -2.39498197364008     -0.77543191330118
  O   6.00170144266303     -2.76758545232738     -0.30491669564806
  C   3.98106585987723     -3.07784128944468     -1.75806825382738
  C   2.91857088599588     -2.23640020899943     -2.07796228090520
  C   1.63190929257142     -2.78614344941838     -2.09205210223554
  C   0.79866597695011     -2.01030486276890     -1.27342763565370
  N   -0.22578973903602     -2.82941510700892     -0.71622257152410
  C   0.10032963396514     -4.05348314818745     -0.99293290270259
  C   1.37616457839801     -4.14893220220029     -1.75760720080780
  C   2.49175163047778     -4.89798233590476     -1.61768852483617
  F   2.50707864358760     -6.14565454704094     -1.14866064675306
  O   3.74854371834727     -4.48272096312253     -1.85780530597672
  H   1.88669650604744      0.07443284094952      1.10073947848360
  H   0.19648695903651     -0.36912927750108      0.79006309300551
  H   0.92995550931630      1.00189927571081     -0.05295429099714
  H   4.39626724216600      0.61297006983934      0.04035894221617
  H   6.28955983348580     -2.05868383072759      0.28098961083416
  H   -0.49943425950401     -4.88872120863285     -0.65272882198423
