21
Coordinates from ORCA-job 2228optt
  Br  1.20525861841524     -0.42474854002346      0.24069649465771
  C   3.06064164236755     -0.07691102747500     -0.00254315042515
  C   3.53440046204576      1.23383909042367     -0.24852612149161
  C   4.92224133509158      1.23460011312558     -0.45779332195825
  C   5.66862299534619      2.33438434559771     -0.60609004443892
  C   5.22595629751801      3.63311670889677     -0.28897054203815
  N   3.86262951974027      3.69121563309579     -0.19905975671653
  C   2.94630453221883      2.55933747003705     -0.15580282664360
  O   1.76186839337269      2.83395550144133     -0.00257534459311
  C   6.35743951991256      4.37780570464650     -0.00655438945906
  C   7.55051762477727      3.48301172004268     -0.03156487424197
  O   8.69955700410730      3.79799716542899      0.22341663575556
  C   7.01857154475206      2.08510461677574     -0.35687648657449
  C   7.08692592808040      0.71220540139759     -0.14508390947063
  N   5.79148316296784      0.18757185791213     -0.23405493842580
  C   5.17449445731176     -1.04723964262429     -0.02561297387000
  N   3.86542990259357     -1.12977948247391      0.06757914898166
  H   3.38562981133478      4.54733416715860      0.04199901226237
  H   6.43526978136079      5.41284304735896      0.28623690105337
  H   7.90957905468820      0.05570205047061      0.08621670734715
  H   5.79717841199727     -1.92334590121305      0.07196378028946
