27
Coordinates from ORCA-job 2229optt
  Br  1.00700097705050     -0.11088032891370     -0.71422613161230
  C   2.81115803210932      0.00636143383539     -0.06893381346475
  C   3.63420931840566     -1.15526475083694     -0.02304847256883
  C   3.12251330805030     -2.44194202900921     -0.57370483267931
  C   2.96844218940731     -3.65565675237368      0.31551981537956
  C   1.97017298410795     -4.70444551711706     -0.13692593333673
  N   2.23975871616432     -4.95059825186092     -1.56284641688182
  C   3.65721742065930     -4.63181580634201     -1.77499708129155
  C   4.05360336607358     -3.60661317269659     -0.72496996912462
  C   5.51010109183611     -3.38788628810637     -0.43266070647803
  C   5.70901635652760     -2.40016702598801      0.70917086835948
  C   4.91471161841925     -1.11555317985757      0.55443720255107
  N   5.53603031410745     -0.06166486564447      1.05516431314549
  S   4.83027842704869      1.44518696057085      1.02118888583818
  C   3.16156137202581      1.29926538179031      0.35359723633488
  O   2.50332210506758      2.33599412478202      0.33441594709015
  H   2.36249443789087     -2.32767451560158     -1.33739177920657
  H   3.18492427794595     -3.53982443099638      1.36921301787152
  H   0.92919486903421     -4.40226475809010     -0.00782848151647
  H   2.12442502625556     -5.62914766072169      0.42861321891578
  H   1.67930002112210     -4.30985877914886     -2.10899556938060
  H   3.81374649495399     -4.28769190208356     -2.80009112521989
  H   4.26358239165307     -5.53399351949585     -1.63026366061606
  H   5.98924848199209     -2.99543175032200     -1.33669270940439
  H   5.99738031677755     -4.34078873774401     -0.19916760940273
  H   6.75885787973370     -2.12322746955835      0.80324331234257
  H   5.42674820558010     -2.88041640846962      1.65218047435598
