29
Coordinates from ORCA-job 22295optt
  C   0.93298948510504      0.06510259671523      0.00563266015067
  C   2.43314423078444     -0.08059507070137     -0.15743872699107
  N   2.83890899294428     -1.47757899857790     -0.33855231397781
  C   4.25884575132928     -1.38232123564562     -0.70525880819445
  C   4.43347238118658     -0.07191936227772     -1.47396970636816
  O   5.55538001936202      0.54767049516059     -1.48254811696756
  C   3.10190299662334      0.70279056513942     -1.32572337438992
  C   2.20061923087553      0.84047389398410     -2.57633831055038
  N   1.40081720034843      2.07975941036223     -2.35685364116346
  C   2.28860135877054      2.88918433232333     -1.58976235474215
  C   3.26331135090125      2.14072204514727     -1.00833512123708
  N   4.23280266413821      2.69219564168884     -0.25810785266421
  C   4.29664152551824      4.08384054354920     -0.04822839044024
  N   5.25117805925576      4.65807382710642      0.58688811401833
  N   3.24933220461607      4.82446797116037     -0.56973776689552
  C   2.34989666148449      4.25239021936076     -1.28370328092052
  F   1.38359689760603      5.03924887539726     -1.79191005265844
  H   0.60248013404975     -0.50432958974332      0.87595942028116
  H   0.40028936056416     -0.31068107828796     -0.87038889857836
  H   0.65709984318511      1.11207479838044      0.13327941711636
  H   2.92178582217261      0.26508230904781      0.76153388513143
  H   2.32443110158007     -1.84842469160212     -1.13398597882383
  H   4.57001746671378     -2.26741289196033     -1.26425977207447
  H   4.86262574771237     -1.34907645800814      0.21550790703735
  H   1.54903200485310     -0.02196580251067     -2.72239523686818
  H   2.85821139119258      0.93964222589720     -3.44724361367297
  H   1.14787907762753      2.52650062053905     -3.22909646256236
  H   5.06920183369255      2.11030048178030     -0.17186154519804
  H   5.92450520580680      3.96378432657530      0.89989792220388
