35
Coordinates from ORCA-job 22307optt
  C   0.99297568098158      0.27164389846473      0.01362418143256
  C   2.45538270813420     -0.00244715026135     -0.02907768619277
  C   3.11835914904445     -1.18512562129948     -0.04911556086808
  C   4.54077900171510     -1.21045904202054     -0.04604748074240
  C   5.03179686940049     -2.60015466223719      0.19271987314255
  N   6.33558186039327     -2.89090554142292     -0.39735643412509
  C   3.82223058688105     -3.45380990461414     -0.32035778867581
  C   3.84664511583829     -4.86622962815656      0.24253326680653
  N   3.81688833067179     -3.57984850966386     -1.78259923389100
  C   2.57845472073012     -2.60437760973513      0.10957678167885
  C   2.23599051551894     -2.84628341636327      1.58870104480147
  C   1.34936801107612     -2.95782151112997     -0.73464890463370
  C   5.19473116941763      0.01791470409739      0.04923322079462
  F   6.56214148978524      0.08050102218828      0.02646921821118
  C   4.52963395387455      1.25620727876515     -0.05990818256263
  N   5.02315714864726      2.44835820678501     -0.13947846511983
  O   3.14443133744331      1.20129087892016     -0.10865048371097
  H   0.42016524175041     -0.62467288559444      0.23399517671713
  H   0.63182632248151      0.68733576651648     -0.93590528581506
  H   0.77901769940835      1.01820054352790      0.78452668593941
  H   5.14683942914034     -2.80583031668051      1.27257613164616
  H   6.38822879006027     -2.50596147870038     -1.33414311993463
  H   6.51134638882514     -3.88988108718901     -0.43813923112763
  H   4.70455202342594     -5.41148159062027     -0.16341934921877
  H   2.94820607685948     -5.41693916939053     -0.04367117570416
  H   3.93568353961969     -4.86507559532668      1.32895190986896
  H   4.68902360862360     -4.01334712086638     -2.07212584784250
  H   3.82872599265329     -2.64215142084436     -2.18033072410323
  H   3.10734555720897     -2.70222679011114      2.22981133575411
  H   1.84541355480090     -3.85560238083785      1.74814277459880
  H   1.47505877607036     -2.12987833202221      1.90252972912846
  H   1.40889156469998     -2.52938233728282     -1.73368848108855
  H   0.43322913329457     -2.60428986257649     -0.26059498679993
  H   1.26959806869157     -4.04216599584968     -0.84275385693266
  H   6.03530058283210      2.36489666153212     -0.10737905143140
