24
Coordinates from ORCA-job 22304optt
  C   1.17433786237863     -0.13540801021085     -0.14921859083145
  C   2.65368078800994     -0.01924225604873     -0.03888806892322
  N   3.32891320168150      1.07796449368582      0.12801309718152
  C   4.66410048706291      0.70188246967468      0.16752881650731
  C   5.75448767087622      1.58473061465126      0.33157266156542
  C   6.72432232848785      2.28490114085188      0.46570889122028
  C   4.76162601847805     -0.66972700976646      0.02138730376834
  N   5.87004541118980     -1.47124056642499      0.04182272567748
  C   5.93133585299262     -2.80631827974361     -0.35440569623406
  C   7.06386878679289     -3.42001458518305     -0.71107873444861
  F   8.20323772912058     -2.69161536421609     -0.74255347196720
  C   7.07547914777817     -4.83506351046076     -1.09532696827194
  O   8.13326391539971     -5.45044194776746     -1.38090215624863
  C   5.76474645649519     -5.35615720791606     -1.14149264267107
  N   4.59568976402520     -4.76545585746821     -0.86300114120467
  O   4.74572901167805     -3.44394614967747     -0.26476566073155
  N   3.48124640110703     -1.11318273373143     -0.11029058352305
  H   0.74226349544341      0.85452070223317     -0.02365322196691
  H   0.76814831325203     -0.79841438172296      0.61736789135959
  H   0.87619911507070     -0.52906839342634     -1.12323194999378
  H   7.57281305920040      2.91387870562403      0.57946470847648
  H   6.75400762794000     -0.98416874418984      0.04921837594182
  H   5.63534385131608     -6.36973459678533     -1.50612709459628
  H   3.25211370422287     -2.08967853198118     -0.23414849008582
