26
Coordinates from ORCA-job 22313optt
  C   0.97114910302131      0.26628656839807      0.54398194558736
  C   2.44766525026943      0.00009634742415      0.53552053524439
  C   3.32828003072569      0.91433962843358      1.00368045244393
  N   4.67375146590194      0.90616334977132      0.81825717990509
  C   5.10228754991693     -0.01564970440042     -0.04011848724344
  N   6.46760147132789      0.04780166328611     -0.41749881249341
  C   4.32794830888064     -1.03836899708154     -0.62099173301967
  N   4.74256938979737     -1.89978466216287     -1.54017896557425
  N   2.97853153606260     -1.15120922148531     -0.13271094857701
  C   2.31589782238209     -2.35421040680834     -0.08690323379269
  N   1.25869687586412     -2.49512129150511      0.69131963132574
  C   0.66837961768048     -3.71039125317917      0.67678797303921
  C   1.10690943223318     -4.76613156490572     -0.04597045635676
  F   0.48335894470652     -5.95882040431299      0.00244603316571
  C   2.27531612946506     -4.65228260610657     -0.88254857144824
  O   2.77155296017545     -5.54612828632833     -1.54941406155718
  N   2.79508219301579     -3.37102904951031     -0.85586642845701
  H   0.81760477942183      1.32844419698634      0.74063338325290
  H   0.42637766724623     -0.32239027781810      1.27828405043573
  H   0.53627069776190      0.03555387359653     -0.43247080857934
  H   2.92606571244182      1.78232473955960      1.51676255999392
  H   6.84295049032907      0.91748478966310     -0.06044609232348
  H   6.58012607179082      0.02721509117653     -1.42569644713280
  H   5.74584581868664     -1.83703412551152     -1.65442787680080
  H   -0.20773576443408     -3.83042010361108      1.30757468019161
  H   3.67651644532922     -3.10773829356792     -1.39100550122950
