25
Coordinates from ORCA-job 22320optt
  C   0.82112616604026     -0.65501096344350      0.12867183850930
  C   2.27988954473119     -1.08130197486367      0.27607016755366
  C   2.52189515001198     -1.73454154045958      1.56064690362011
  C   2.68032957104869     -2.27713412128245      2.61778018328750
  C   2.74146346412245     -1.95309702360524     -0.92194325363498
  O   2.04490278685744     -2.02681637364822     -1.89419064347788
  C   4.09557032309661     -2.61605852544299     -0.77131422845360
  C   4.65659356163755     -3.20599542880140     -2.02145628160938
  N   4.42876782707915     -4.51387775349996     -2.24699766189253
  C   4.86465963159356     -5.08482781450053     -3.36140348987357
  O   4.76009386495482     -6.25708420729123     -3.68385480248735
  N   5.56130262934436     -4.19568517745869     -4.34411127152363
  C   5.89593695940716     -4.71855426829291     -5.57402019317372
  O   6.41673128993720     -4.11496186638470     -6.49628087472131
  C   5.79416439992977     -2.90005531535331     -3.92186804089032
  F   6.57103555175306     -2.15659666992741     -4.70794591529710
  N   5.36295862538448     -2.39147083841749     -2.82132183025193
  H   0.53691320667289      0.01103760219938      0.94271800086296
  H   0.17453610711822     -1.53153765476253      0.14684493397554
  H   0.67970085812178     -0.15321390692705     -0.82610006366167
  H   2.92519519326368     -0.19508688961537      0.23349208572801
  H   2.83407028420720     -2.76775293157007      3.54810687813928
  H   3.97433203092006     -3.39650661010448     -0.01436755796106
  H   4.77657964885826     -1.86683649214458     -0.35428305728288
  H   5.62125132390775     -5.77503325440173     -5.61487182548328
