33
Coordinates from ORCA-job 22338optt
  C   2.53909450874579      2.37415834340532     -3.34169399628693
  C   3.31046738871576      1.12046152236826     -3.73743190719507
  C   4.01971787540745      0.47312889322885     -2.55462751216719
  C   4.82376670297475     -0.75104013213692     -2.95765198733580
  C   5.48075510711229     -1.44564131455049     -1.78699219423157
  O   5.15284010524252     -1.23517988370911     -0.64136696882786
  C   6.64470560999458     -2.36132853416362     -2.12843322249551
  C   7.01885099676423     -3.30126423778988     -0.99335814789486
  N   6.44320911269059     -3.03437306199494     -3.41061915694606
  C   5.72958839826515     -4.21070119195986     -3.41486201017956
  F   4.53357060699371     -4.12703027611433     -2.77590017540523
  C   6.11672960950409     -5.32915923322668     -4.01270640975221
  N   7.39098990590781     -5.37335384527473     -4.59709007984178
  C   7.98906513600388     -4.12981272175831     -5.00043221977434
  O   8.88005198426796     -4.17238939531067     -5.87462669235308
  C   7.51827097311032     -2.93828836970549     -4.37446109665922
  N   8.00060852923260     -1.72867450644531     -4.56111559112870
  H   2.03438718553842      2.82795912850738     -4.19631800212425
  H   3.21141631629195      3.12107462084087     -2.91380386911238
  H   1.78306776306072      2.14345624500879     -2.58777936186957
  H   4.04602492187184      1.36610647679913     -4.50864189851646
  H   2.62737073976519      0.39412383099616     -4.18831398153605
  H   3.29057613860244      0.19602780727575     -1.78902494539328
  H   4.68454768082501      1.20417084324646     -2.08328903048934
  H   5.60518589595198     -0.52404970682559     -3.69157316665198
  H   4.18687120359984     -1.49518807144556     -3.44809891751135
  H   7.46762365470583     -1.66506988732585     -2.33325790264579
  H   6.19410071325193     -3.97696632663257     -0.76115566893625
  H   7.25421463773330     -2.73562820038752     -0.09322988315614
  H   7.88502484130478     -3.89396474232403     -1.29122182901124
  H   5.47170375996665     -6.19250974872670     -4.07697269351014
  H   7.51284356078619     -6.05962110307626     -5.32666092120913
  H   8.77375843581019     -1.82243322079246     -5.21728855985153
