26
Coordinates from ORCA-job 22330optt
  C   3.30664425255713      0.06998698750742      1.44564348217041
  C   2.65107279632203      0.17725429470996      0.08119872862257
  C   3.07455898047852      1.44706793069847     -0.63546704209700
  O   2.56431313519416      1.79756747325021     -1.69679206459235
  N   2.93088425879260     -1.05119193517385     -0.70687855221576
  C   2.06410317375618     -1.24618622679899     -1.85176267072612
  C   0.96145055706625     -2.22876207788422     -1.52414704508165
  F   0.11506139539239     -1.76063300292443     -0.58951558687786
  F   0.21488039757553     -2.49321106280801     -2.61639865294647
  F   1.41954230041768     -3.40236002498094     -1.07887140519349
  C   4.32384630979427     -1.20057914285649     -0.98832073376598
  C   5.02344921073922     -2.24391210964320     -0.44490487213834
  N   6.36438959109049     -2.41281398973769     -0.63904489029786
  C   6.90487604330603     -1.45116390140605     -1.36533502523540
  Cl  8.65384588271103     -1.63187103859180     -1.61136502044992
  N   6.38129425793082     -0.40654031472159     -1.93710165977172
  C   5.02979030091214     -0.24544436941287     -1.74444319588788
  H   3.03279650599599      0.92651770520245      2.06501514461435
  H   4.39341354345001      0.05505875594605      1.34106785158941
  H   2.99627550199752     -0.84841099226670      1.94385289825711
  H   1.56268435356296      0.20969288072410      0.19517383197639
  H   3.81964400896435      2.07930751792162     -0.12076860093837
  H   2.62813440537912     -1.67854970289027     -2.67905203196535
  H   1.59694261969116     -0.32226449963050     -2.20424357026185
  H   4.51202155717340     -2.97213721233118      0.17467876642096
  H   4.53508465974878      0.51457805809856     -2.33121808320779
