33
Coordinates from ORCA-job 22337optt
  C   0.18400305288407      0.71749316843793      3.61577313827425
  C   1.49057248878064      1.49050447165035      3.70449798786923
  N   2.60522626585959      0.57888613982560      3.65779158198472
  C   3.77663560914754      1.08717379506429      3.83213726145916
  N   4.04713884991719      2.40812481713434      4.05970116685798
  N   4.84975361046960      0.22353267741118      3.85358622561695
  C   6.22997697098537      0.45549649753186      3.78034224032429
  N   6.64293518167495      1.73614584867680      3.79756705253720
  C   7.99239413284065      1.85701182465369      3.75995786133329
  F   8.40936697054513      3.14940376629340      3.79237443089221
  C   8.89483031369589      0.84972039692646      3.65898320504496
  C   10.37344795467552      1.09186206981475      3.58800933662126
  C   8.33627194492702     -0.45724659564421      3.58232914132543
  N   6.95951307003284     -0.62497576516407      3.70244356928368
  C   9.13264987129844     -1.71034813261465      3.78182730681403
  C   9.30416449531634     -2.05454805783888      5.26645971487721
  O   8.50289718587964     -2.80922522544112      3.12627380625457
  H   -0.68017935820727      1.38554740437539      3.63204426253359
  H   0.10769219079557      0.02209766037214      4.45255921365169
  H   0.16096212477548      0.13271158400715      2.69525985736642
  H   1.49389644603481      2.08917682271271      4.62940711605545
  H   1.52521279080860      2.21517170603712      2.87247154732299
  H   3.35714083172198      3.05941183863479      3.72923522030936
  H   5.03667692112823      2.65407309482422      3.97158503027294
  H   4.59176977925077     -0.74434209418063      3.74962671477668
  H   10.59583189159366      2.15651264652958      3.63616596820060
  H   10.78585524266936      0.69689172284638      2.65432873955522
  H   10.90259323927745      0.59494764669766      4.40638316645683
  H   10.12432266365767     -1.59191562236087      3.33355616574480
  H   8.31732316314599     -2.15467420785060      5.72217397394460
  H   9.84474088554606     -1.25812758411547      5.78363161763160
  H   9.84887721928860     -2.99464381993067      5.38569028452970
  H   7.56750599958240     -2.55785049531662      3.09682609427694
