26
Coordinates from ORCA-job 22345optt
  C   1.10243134983155     -0.02746127882787      0.04928113885906
  C   2.59802563581914      0.02282941616252      0.05667432809125
  C   3.28330181451358      1.18756121802458      0.09899220625803
  F   2.61323744870845      2.33267645243180      0.12462758592605
  N   4.64703197979451      1.31103384967319      0.11918452607635
  C   5.38858500762615      2.61073041589681      0.13012494286686
  O   4.76677414508194      3.67820633214810      0.12317269597672
  C   6.78042924320861      2.46986762927444      0.12865252962301
  C   7.58985687554503      3.74414866883574      0.10508380420303
  O   8.97933871797145      3.48310078839385      0.11946117957078
  N   7.49013265527103      1.34095048329015      0.14487410626898
  N   6.72035644138849      0.20683984110395      0.22046365245993
  C   5.37022833764487      0.13416396597352      0.11308221668557
  C   4.74808478550464     -1.08258528223005      0.02671519508153
  O   5.56970412721839     -2.20048551754791     -0.00123974961994
  C   3.32807012783995     -1.23160579090298     -0.00632661518201
  N   2.67937007671598     -2.35998296748548     -0.06408980744003
  H   0.66548384941924      0.96581696651572      0.11970884319317
  H   0.74888527843399     -0.64148366029901      0.88027518244357
  H   0.74897411890382     -0.51837906351573     -0.86003575975416
  H   7.31875615848475      4.35982036428765      0.96931001423232
  H   7.33147531717931      4.32582759244600     -0.78602799193754
  H   9.05857462081467      2.51726494228016      0.14511857248491
  H   7.21312942027629     -0.66033492380751      0.10580660463733
  H   5.26152253997013     -2.81199415824302      0.67849029999399
  H   3.33423992683398     -3.13252628387867     -0.16837970099875
