25
Coordinates from ORCA-job 2235optt
  Br  2.36315382517107     -0.93107532814794     -1.34888882417679
  C   2.10772379232862      0.69242743518424     -0.33163548104566
  C   2.46970235051824      0.75532916754998      0.99724997917720
  C   2.65532027390113     -0.29598991447296      2.05146528272328
  C   2.01468371309750     -1.65143349494416      2.27916046571079
  N   0.75147287055416     -1.77381690333804      2.99042369431560
  C   1.98668257198735     -1.81137856204210      3.76710378082875
  C   2.49921551261352     -0.52594199576196      4.42892053225840
  C   2.30392705635022      0.49639567973767      3.31533040686428
  C   2.98938771120026      1.83961196755308      3.08287485187238
  C   2.79386491581481      1.98714435888978      1.58102154976716
  N   2.96081256688909      3.16163933469228      0.93878558455253
  S   3.18596196538339      3.01123207791063     -0.61598561254975
  O   2.76434638558724      4.17466359943440     -1.32991584939046
  O   4.46462562452146      2.44678774241493     -0.94971641968341
  O   2.07303084913284      1.83769789180450     -1.06282124306630
  H   3.73489073318573     -0.51666369767737      2.09646029761675
  H   2.25037498406857     -2.46955648635604      1.61208982302224
  H   0.26294085667625     -0.88988960106333      3.06753604523193
  H   2.18418330556832     -2.76042895596213      4.25101443355445
  H   3.55852367994616     -0.65599078686548      4.67003305669099
  H   1.96816342984016     -0.28328325012324      5.35196815862575
  H   1.23528581619675      0.72211831989215      3.25467073519306
  H   4.06180335969349      1.79621454171283      3.31161808759866
  H   2.55892184977360      2.67518685997828      3.63723666430812
