29
Coordinates from ORCA-job 22360optt
  C   1.05348697537300     -0.23191558164671      0.54903012209996
  C   2.29268351843150      0.31681547909105     -0.15272612848894
  C   2.99757001158185     -0.77195705800290     -0.97303129776855
  N   2.31744406712879     -1.14016002360361     -2.23153167884349
  C   4.49507220103492     -0.62084553482666     -1.21902089253604
  C   5.16885900890677     -1.83878896128658     -1.38384830970957
  N   4.49674709361918     -3.08909647099094     -1.39327038739801
  C   6.56962263372546     -1.76199016109371     -1.47454627852801
  F   7.20613209258323     -2.93894615363226     -1.73026238105702
  N   7.31353618094995     -0.74014634128125     -1.31098406161340
  C   6.68517041191548      0.47250279327228     -1.07044652035911
  C   5.24632657032064      0.56077395208593     -1.18379203592612
  C   4.68875743883125      1.90555313106303     -1.35981917885236
  N   3.66490125565817      2.24626191147170     -2.05053968248178
  S   5.53581443092181      3.23193621111931     -0.54780753053008
  N   7.13247973649601      2.77846562193838     -0.35774978993313
  C   7.49351087833305      1.54635374716779     -0.69274052740646
  H   0.54237230009111      0.55238954025842      1.10935006224073
  H   1.31452629388736     -1.03147053268586      1.24556284211481
  H   0.33165901146742     -0.63876984649922     -0.16507867097484
  H   2.99276025263085      0.70777193837769      0.58988162007622
  H   2.01159604650853      1.16134910216583     -0.77838177925828
  H   2.94531025106460     -1.67753294442947     -0.35706469310012
  H   2.46824749026002     -0.42760867731137     -2.93675106537064
  H   1.31607040540314     -1.20713723844553     -2.08332123134367
  H   3.71986317879525     -3.07514548049847     -2.04648181880535
  H   5.13596584876949     -3.83242097774574     -1.63532594943962
  H   3.25346653681549      1.41797799199426     -2.47603106349854
  H   8.55704787849557      1.33378056397463     -0.62027169330857
