32
Coordinates from ORCA-job 22369optt
  C   1.03210991727554      0.71524021018466      0.12747814515465
  C   2.45660890564485      0.30094607908277     -0.14975190734400
  C   3.44176893387406      1.26193100907934     -0.00265310727627
  C   4.80987718617708      1.03852015937365     -0.21650753660056
  C   5.85873146906108      2.08943245842872     -0.01179913596284
  C   5.13062337546603     -0.25772124210724     -0.58400994860688
  F   6.44330893635867     -0.54494604588541     -0.81271449064883
  C   4.20797616141513     -1.25860466984945     -0.75161840819568
  C   2.82361355492011     -1.01988976070630     -0.55110599756015
  C   1.87445035353042     -2.21093041146944     -0.57115930133838
  C   0.48834957007586     -1.97842088761471     -1.16245103950700
  O   2.47988712134986     -3.29589719383932     -1.29262200058053
  C   1.78001475984075     -2.60107893268551      0.89477506019561
  O   0.88337414548735     -2.15421317036201      1.63952314553732
  C   3.03369957375183     -3.22160783216066      1.50468200674620
  C   2.72801687526819     -4.37493275575433      2.34563162171553
  C   2.48435044107463     -5.33425892019153      3.02533319962426
  H   1.01975434634988      1.72734932595067      0.53382850255784
  H   0.56373131265192      0.04392143925578      0.84688148028022
  H   0.42481456030537      0.71321987021758     -0.78227283476518
  H   3.13608924460496      2.26190989848310      0.29247157021167
  H   5.39173244784821      3.06346036160063      0.14034439676842
  H   6.53097326101299      2.16519138560345     -0.86977305605336
  H   6.48481718797898      1.87808617960468      0.86149574730460
  H   4.56150493440044     -2.23425025328368     -1.05320203806586
  H   0.56196416824856     -1.45112998974043     -2.11787018196509
  H   -0.15638944370558     -1.42969805940404     -0.48520372243011
  H   0.04796722258639     -2.96250437137172     -1.32818222127277
  H   2.72572603289774     -2.94247056967454     -2.15709939926929
  H   3.54492271842808     -2.46145844188294      2.11720935013932
  H   3.72448032556244     -3.53128845680454      0.72176125817579
  H   2.24715040025810     -6.17690641207721      3.62658084303136
