23
Coordinates from ORCA-job 2236optt
  Br  1.17690953432279      0.01586235317245     -0.76998053067721
  C   2.88835187935647     -0.18142611212753      0.05396307143473
  C   3.24469403806590     -1.41205923555170      0.62830106465188
  C   2.52252787610887     -2.75095991673873      0.58066480514350
  C   3.26664287887599     -3.51193222770509     -0.52864738954215
  N   3.67099836554666     -4.89131662289206     -0.22582807711059
  C   4.60171808438369     -3.78272986844278      0.02858045756621
  C   4.57634121795144     -3.17783193330786      1.43742636367318
  C   3.10412043812627     -3.38557785796991      1.87619908591703
  C   2.66163667556103     -4.71012981175586      2.29422413228653
  C   2.25911186319619     -5.73847695904626      2.76466556315851
  C   4.52370063817141     -1.67473061448371      1.15438109581331
  N   5.56344193654960     -0.89301285452439      1.28376646030984
  S   5.36403029666260      0.71604968412225      0.82152218168918
  C   3.72172163765027      0.95159446014806      0.05107701186098
  O   3.51696754745385      2.07703236387935     -0.38763951426670
  H   1.43948498814049     -2.71303431055924      0.50429380882936
  H   3.12888424217381     -3.19847863698708     -1.55487628029807
  H   3.93605768134564     -5.36118304317045     -1.08567569961097
  H   5.49902385361509     -3.68210090636518     -0.56673550615289
  H   5.35206823872809     -3.49474215988091      2.12871042029562
  H   2.89355051380697     -2.71023144656544      2.70575760388954
  H   1.91601557420679     -6.67158434324790      3.13884987113918
