32
Coordinates from ORCA-job 22364optt
  C   1.01805450021128      0.20847231866650     -0.04767396294980
  C   2.52874337177162      0.06797894768632      0.13589537819228
  N   2.94351044937330      0.15751398045300      1.53777751997367
  C   3.02998027289867     -1.24168481246247     -0.46828635170037
  C   4.54890660273886     -1.33598498994688     -0.55888862772615
  C   5.09050440757936     -2.71570621679220     -0.96691225034447
  C   4.53101326462024     -3.12492728816495     -2.34356979269914
  O   4.96423300005807     -2.28502874785580     -3.36408256482913
  C   4.84147964688569     -4.57912314861922     -2.69375530974582
  F   4.34275820121830     -5.41477959929856     -1.75371542138312
  F   4.24652323279744     -4.92768813891939     -3.85228900524302
  F   6.13129601915502     -4.85747924067751     -2.82917442347446
  C   6.60076855709209     -2.67906870749155     -0.99401765926435
  C   7.41211329774938     -3.25258516590481     -0.04782447317680
  S   9.08886954187767     -2.91321583635196     -0.42682239683453
  C   8.55563294323019     -2.20713002997110     -1.97854993598287
  N   7.19392798553584     -2.03192861214684     -2.01050807211587
  H   0.65353546778414      1.13889360632319      0.39461137550996
  H   0.50314379360600     -0.62315495537914      0.44192521226333
  H   0.74323733222999      0.20216660363772     -1.10445569998342
  H   3.02359046908751      0.89124480640980     -0.38974443450971
  H   2.57413595402471     -0.63417839554124      2.05562064946527
  H   2.57152767404602      0.99536388626679      1.96993798139560
  H   2.58764697919801     -1.34189404868379     -1.46287358215904
  H   2.63218126397345     -2.07151653653782      0.13425734231623
  H   4.98525479128976     -1.08169990445016      0.40825189312801
  H   4.91724274079872     -0.60145229628686     -1.27821822095611
  H   4.76546234560841     -3.45386036621481     -0.22769745989679
  H   3.43490816655513     -3.10573653989906     -2.31339923293989
  H   5.91684615262356     -2.05325544490163     -3.11894919964495
  H   7.11395134014091     -3.79587683148099      0.83321020123482
  H   9.20702023424039     -1.47367829546450     -2.43807947591931
