30
Coordinates from ORCA-job 22367opt
  C   1.21315457733503     -0.21588502574015      0.71862570364148
  C   2.61298787459782     -0.14092380792097      0.20858370143834
  N   2.86363379929644     -0.94135377692316     -0.93690057173135
  N   3.45044965245834      0.72334685167667      0.72412495214701
  C   4.78393259088513      0.75951570731391      0.49975614978397
  C   5.65015461362257     -0.35449431311207      0.23720134157032
  F   5.15290981662805     -1.62811344492793      0.43092654003234
  C   6.99897966410435     -0.25709758911594      0.00014311125617
  N   7.78076153526217     -1.43338460744422     -0.16208318508270
  C   8.86363546245495     -1.58894354993535      0.80528969781368
  C   8.39345232297389     -1.45308318709469      2.24938515711883
  C   9.45543266611078     -1.65836569101285      3.27780384744447
  O   10.61056852760763     -1.90768548192784      3.04666198997859
  C   7.62731556212917      1.00854576254011      0.00364370395048
  C   6.81396188816490      2.09110952144938      0.35350732667189
  F   7.41146923829212      3.31589875147050      0.42345729901939
  C   5.48044620335810      2.01019697135139      0.61964357470883
  H   0.98460475710779     -1.20052705903801      1.15413022168606
  H   0.48371001825526     -0.05397526019063     -0.08471091587693
  H   1.07455124740416      0.53438533784827      1.49539877358434
  H   2.74096841171869     -1.93505216495087     -0.75766677083423
  H   3.81205298838118     -0.80774057049179     -1.26551016466581
  H   7.17094653605673     -2.24011157989329     -0.13148380008887
  H   9.63452436267317     -0.84325506677779      0.61127441865534
  H   9.32571095720275     -2.56528250001455      0.65013685102687
  H   7.57685664333476     -2.15318814541626      2.46828066772443
  H   7.95942666829240     -0.45697208012036      2.40622516308605
  H   9.11698212982431     -1.56751868395683      4.33074782878715
  H   8.65604107109546      1.14357220680640     -0.29432378770754
  H   4.91837821337158      2.89438247554892      0.88773117486133
