33
Coordinates from ORCA-job 22362optt
  C   1.04145807053398      0.43481703648981     -0.33301255471206
  C   2.49068834173085      0.01680004522441     -0.10509065216815
  C   3.22153091879381     -0.37025772224742     -1.41869578547844
  N   2.74466320779841      0.37381101285522     -2.58464356084156
  C   3.11926946847703     -1.89407506958802     -1.46292903403222
  C   3.39964915464748     -2.26253699789243     -0.00354679449187
  O   3.04679300776813     -3.58627947390755      0.33048784985949
  C   4.23246256794466     -4.31184382155228      0.16699515023170
  C   4.37278162189777     -5.70404653121023      0.23146482198140
  C   5.74551185716156     -6.14585901462801      0.12882008689495
  C   6.76444504867536     -5.24164947017987      0.04920280007943
  F   8.04346131998009     -5.72897533414982     -0.04685816269212
  C   6.63849686113278     -3.83318119538182      0.07171494515801
  C   5.27281050458403     -3.44047758304740      0.08532937777295
  O   4.78886138865798     -2.13226453343896      0.24847062812325
  C   2.58012323090197     -1.24239473155330      0.79249393018096
  C   3.10684456515746     -0.99924613958902      2.19519849803855
  H   0.97598952946523      1.34166208358973     -0.93513769176054
  H   0.54719373756311      0.61657338185958      0.62393820996254
  H   0.48341770080469     -0.35907934577271     -0.83938215601223
  H   3.01570036713676      0.85061699404128      0.36756185836939
  H   4.27635915418054     -0.12024414893903     -1.29450956458725
  H   1.80164659455021      0.07853876689039     -2.81740625825274
  H   3.31924023136473      0.14000283797787     -3.38642204591264
  H   3.82550053938191     -2.37294621571558     -2.14134403902526
  H   2.10042280836415     -2.20407198634147     -1.71981729582847
  H   3.53627937611598     -6.37925301802379      0.13074195880434
  H   5.99640864886399     -7.19892668875429      0.15109209873147
  H   7.44640388256596     -3.19002708922970     -0.24631674205431
  H   1.58277150076034     -1.68834844678332      0.86158302287469
  H   4.10838484599166     -0.57121936185309      2.15454047330024
  H   3.16768042407822     -1.93845055974122      2.74650929600146
  H   2.45074952296904     -0.31516767940791      2.73996733148504
