26
Coordinates from ORCA-job 2238optt
  Br  1.18555487814970      0.95801107814825     -1.22478258541938
  C   2.94679289683375      0.43805890280325     -0.69148184606252
  C   3.80957585183808      1.34330380800547     -0.11577768614295
  C   3.46307608684165      2.70796983541662      0.34739830526356
  C   4.17450398478198      3.96773224275218     -0.16286503622862
  N   5.28739790302760      4.44045313097050     -0.94848883216267
  C   5.80730143519008      5.48921277531488     -0.03390532301969
  C   6.02577489986053      5.01879752959974      1.43967976833794
  O   4.97534346945150      4.24164026325284      2.03818468075200
  C   4.69204860807876      3.28437619514863      1.03308053610887
  C   5.78948403840264      2.23529780064325      0.84122030576376
  C   5.15873207849363      1.08262395738307      0.11317830229341
  C   5.85509395832296     -0.07551426454864     -0.27860783026202
  C   5.28975715281494     -1.18300480831734     -0.91621745699489
  O   5.80876113345029     -2.22293434403775     -1.30413062453020
  S   3.44805447904307     -1.13940728575996     -1.23867921406880
  H   2.44200134965944      2.91749456170318      0.63655066879022
  H   3.53620028771085      4.79462294879310      0.16247593756452
  H   5.02298145130320      4.85640216408315     -1.83471299137200
  H   5.11418974410627      6.34263408785505     -0.00625337204844
  H   6.77290280168384      5.85404780480886     -0.39300091133436
  H   6.14396954663967      5.90910519603895      2.05856409179815
  H   6.95360466311799      4.44274967859478      1.49122840880512
  H   6.14593072090709      1.95006945001094      1.83979485980358
  H   6.64570301604080      2.62674305403174      0.28478903810258
  H   6.92026356424961     -0.15348576269477     -0.08924119373721
