29
Coordinates from ORCA-job 22389optt
  C   0.97884351557569      0.04341321936421      0.03418057310950
  C   2.47928046968446      0.01915330874832      0.03099369197026
  C   3.19594004424778      1.20508075884806      0.03734338175644
  N   2.52136727901543      2.41155503701652      0.00672760117200
  C   4.64068664756828      1.21664006797240      0.03091182915948
  C   5.36151851381518      2.44269477271694      0.15001500002294
  O   4.87634320396813      3.61090959140066      0.24315247116757
  C   5.29559628819058     -0.05580188853517     -0.03557721365390
  C   6.80086939849210     -0.13200152553391     -0.08139336199487
  C   7.23477943386834     -0.24285819662481      1.34946498459492
  O   7.86941944455615     -1.17037431895670      1.80980521100290
  C   4.56963083238335     -1.25559029153203     -0.01086877450836
  C   5.23657490679153     -2.59989675542099      0.02398910773200
  C   5.70435160777563     -3.17188206745132     -1.28759651257446
  O   5.64266883967085     -2.65158517329318     -2.36611440030303
  C   3.19575685499161     -1.18447638391737      0.01554096934962
  F   2.48065961657544     -2.35272295790907      0.02986520657252
  H   0.60264582480727      0.67561878997182     -0.77580650964711
  H   0.58223560175504      0.45181636889292      0.97151109940119
  H   0.56844348923717     -0.95653313250349     -0.08846840365777
  H   1.60674420872126      2.42353060768377      0.42567276348138
  H   3.13505009859717      3.20852302819083      0.18752434110156
  H   6.45541303902730      2.35703572871295      0.19904579891795
  H   7.21951002091407      0.75871492051738     -0.55687242361188
  H   7.15843000632142     -1.00164649125370     -0.63179435181106
  H   6.86129450392209      0.56360957063489      2.00712952154285
  H   4.56269519565887     -3.35007177708244      0.44936714601181
  H   6.11791126578221     -2.59928444762496      0.67796114075745
  H   6.15433984808528     -4.18457036303252     -1.18970988706192
