24
Coordinates from ORCA-job 22398optt
  C   0.97101061176977     -0.06247436588341      0.05100270412663
  N   2.38001204040702     -0.03598340757646      0.38476549371637
  C   3.10281813733971     -1.25481879855515      0.27101396337504
  C   4.48659853321311     -1.20818420647602      0.27028970051034
  N   5.15550463504467      0.00964168408166      0.43750044946756
  N   4.42278827609061      1.14723414453477      0.04150090059782
  C   3.16742255423033      1.04372254915252      0.06115687008434
  F   2.46110199890239      2.14121600939264     -0.23648624062105
  C   5.01461826338085     -2.54132921279152      0.12905516581053
  N   6.26653130341690     -2.90578685917708      0.09170311785480
  C   3.81687161572895     -3.40620748546256      0.03080179746085
  C   2.66431173605083     -2.56198190883317      0.12194774161623
  C   3.82720871792163     -4.78925294099914     -0.14982863384665
  O   4.81628506907000     -5.54613885143983     -0.24879239910016
  C   2.48410183960335     -5.56915747712975     -0.26378842247959
  O   2.75368431126537     -6.85715426192641     -0.44817205418472
  O   1.36093570328432     -5.14054020064776     -0.20362645806512
  H   0.49494172787543     -0.82500267282255      0.66594592592684
  H   0.80683189207970     -0.31635258907027     -1.00250721372473
  H   0.51892530309299      0.90044561974120      0.26938012282464
  H   6.06202746559598      0.04827249444511     -0.00843195351825
  H   6.85743428308041     -2.07946055443128      0.20619062941496
  H   1.64579188822780     -2.90568073162783      0.06747041813900
  H   3.75324209332784     -6.84302597649766     -0.44109162538568
