33
Coordinates from ORCA-job 22401optt
  C   3.06478490296948     -1.55930834240478      2.65907843262754
  C   2.58111514396513     -0.11721703148930      2.55112379464132
  C   3.10583465624086      0.65705533828859      1.32213093040142
  C   2.65200500309322      0.00012371950618      0.00916448547169
  C   2.52854126949182      2.00663678994024      1.37090036929388
  C   2.00719899138205      3.08616013090298      1.41443671252597
  C   4.66435271495997      0.71495196478254      1.34088499533815
  O   5.01560541338368      1.59993635086641      0.26825335035295
  C   6.40228653581404      1.71761794950312      0.08008921338332
  C   5.27944675918024      1.08716228749589      2.63442642864624
  C   6.11237280110559      0.29418856184905      3.37794366408765
  F   6.40744523615546     -0.95094671194032      2.88474549258431
  N   6.65683819487698      0.58769185145962      4.53041388635903
  C   6.38182515296739      1.83108445259998      5.02415194193844
  C   5.55422296517883      2.79270367124619      4.37343313551574
  N   5.26600965794385      4.01288275888704      4.74039855183725
  N   4.98362398979908      2.34422237997613      3.18742976082049
  H   2.64028780146881     -2.02378837956922      3.55043475882670
  H   4.14976572435311     -1.61091381745504      2.74770845905770
  H   2.75622541191776     -2.15715436771897      1.79891783000301
  H   2.88221045059617      0.43634413229106      3.44222097417936
  H   1.48846809821706     -0.09318304886306      2.50824883346422
  H   1.56535342131685     -0.10480907809139     -0.00591730587264
  H   3.10178123255137     -0.98883176538720     -0.09345690282913
  H   2.96032360034701      0.61014251194720     -0.83766704510725
  H   1.58018354152616      4.05695020128155      1.48236141586641
  H   5.02121901200370     -0.29074038814951      1.09222059726996
  H   6.54998625323591      2.32575982237133     -0.81219114713979
  H   6.86782018834488      0.73517857802051     -0.06972312533362
  H   6.88603383891659      2.19704991730867      0.93555029692878
  H   6.83782120764659      2.10421084396137      5.96743868237775
  H   5.74282781188106      4.20679628180033      5.61671157177722
  H   4.47918301716912      3.02604243478274      2.64313696070585
