24
Coordinates from ORCA-job 22424optt
  C   2.54871075229604     -0.40738822796672     -2.29355491059432
  C   3.30120723542281     -0.16288655434649     -1.03436695434246
  N   3.90130653937151      0.94930964918397     -0.75953276861046
  O   4.45262049290755      0.80043451007688      0.47005269692972
  N   4.19857369888258     -0.43601609767317      0.96700244579679
  C   3.50003949410047     -1.05637903951158      0.07347711919484
  C   3.01261481750465     -2.46997172233810      0.19839348068313
  C   3.37331650752119     -3.09518909629423      1.54899120520180
  O   2.67686124160543     -2.56168862642674      2.64805040915460
  C   1.55180697301997     -2.56244306405788     -0.16978472145909
  C   0.58581211396225     -1.71836013328359      0.35734613330372
  F   0.92126511915612     -0.76571936207061      1.26494259321988
  C   -0.76942298062522     -1.80316591373712     -0.05548783967857
  O   -1.69279774496043     -1.10576741225621      0.31475264272594
  O   -1.00893874742656     -2.79160462446815     -0.96567034307752
  N   0.05576321851765     -3.62934122446695     -1.55754584124182
  N   1.24039323605779     -3.45571570429275     -1.10563092569184
  H   2.73414838160538      0.39738929857619     -3.00181871270515
  H   1.48037430538326     -0.47175795760713     -2.07969062491753
  H   2.84034342641696     -1.36279759420771     -2.73097689196465
  H   3.53264621980472     -3.05718182153955     -0.56607942105510
  H   4.45712102460809     -3.00743323023291      1.69593426627687
  H   3.11433749333344     -4.15368237522576      1.50469576528634
  H   2.64989718153430     -1.60164367583368      2.56550119756488
