32
Coordinates from ORCA-job 22423optt
  C   0.93700050351897     -0.14509506107319      1.40662922263437
  C   2.39744937244258     -0.57545647169966      1.33618698269415
  C   2.69065553620323     -1.53848838896074      0.19114069663575
  C   2.42661084320231     -0.93515272324978     -1.17724586052056
  O   4.04875922081115     -1.93509243860287      0.19529733847915
  C   4.42109189194827     -2.87502317543720      1.17197343182894
  C   5.27635607384122     -2.45246173236977      2.22276189135634
  F   5.17277371236232     -1.15925392473553      2.64286840907540
  C   6.13982722336667     -3.28190875097364      2.86474628401300
  N   6.32060716642773     -4.59651176972546      2.52100495877228
  C   5.57302236046575     -4.99858950614458      1.46807315284031
  C   4.67210145481061     -4.23315918604470      0.76481676277383
  C   3.85819091200559     -4.84220714149428     -0.34909572498705
  N   4.57602905025475     -5.51803679627515     -1.43287194256364
  C   5.60780732927668     -6.22034189609826     -1.29846917287320
  O   6.30207881988557     -6.63930123248672     -0.22352673837342
  C   5.72579251758509     -6.43886720474190      1.07991742540682
  H   0.74153548327606      0.43800286716088      2.30804895627771
  H   0.27768228388103     -1.01711441719968      1.42689767507523
  H   0.65093361209960      0.46689467439435      0.54913491043485
  H   2.68699358210288     -1.07372714254810      2.26288371533088
  H   3.05532355534916      0.29183129893650      1.22872672273843
  H   2.06047035327576     -2.43054618516224      0.32455835679419
  H   3.02393199941510     -0.02958979877050     -1.30507851831326
  H   1.37272286173381     -0.68318836145776     -1.30346117078598
  H   2.71319802637184     -1.64629900028735     -1.95255620614862
  H   6.69809397831998     -2.90499284133801      3.71583336666318
  H   3.28731224630718     -4.04698400612507     -0.82747239340208
  H   3.11389551630573     -5.54552122800409      0.05377296416599
  H   6.08860023710327     -6.61414437348862     -2.19402674011997
  H   6.41191660174455     -6.92101786934349      1.77101394966508
  H   4.76323567430542     -6.96365621665331      1.09451729443189
