29
Coordinates from ORCA-job 22430optt
  C   3.50402615739810      0.11596573269717     -1.19720287495265
  C   2.40590720441666     -0.05161254531461     -0.12333625788874
  C   1.25383662130228      0.94420305245310     -0.41949768653973
  C   1.75535167307703     -1.35989052004332     -0.32541776221251
  N   1.17435012818496     -2.32697514703053     -0.54537026283241
  C   2.94785480481171      0.10068019602937      1.29769156557851
  C   3.02798694468482      1.45101779031846      1.87241389848133
  C   3.26009977510588      2.61853201995360      1.12711922270261
  C   3.47278122732283      3.61798270444309      0.46949769362277
  C   3.06894508093513      1.53722490366206      3.27550715452990
  F   2.98960436180328      2.76837915336302      3.83063011635113
  C   3.21483484178469      0.46796991241963      4.10961147473131
  C   3.40489603330342     -0.78414331841479      3.47633220618592
  F   3.83483154485351     -1.80886164927396      4.28035921825352
  C   3.28684589904455     -0.99790528077446      2.12675433621379
  C   3.63406602544413     -2.39522372861905      1.63303315518533
  N   2.71072783340184     -3.47698751242077      1.98239545856469
  H   3.08739753614922      0.03150990558233     -2.20467083404821
  H   4.27877356551993     -0.63979175656181     -1.06841840765955
  H   3.95237488863096      1.10156242228230     -1.07068279980694
  H   0.79711227495435      0.69636321004073     -1.37927402199629
  H   1.63185648330374      1.96109489342421     -0.45708011021610
  H   0.49873828424773      0.87703703007598      0.36297493995307
  H   3.66162007492829      4.49452439912404     -0.09889375938086
  H   3.22456271079571      0.57682411707149      5.18361577990979
  H   4.60783407046942     -2.65176903140536      2.05686673607269
  H   3.76448606643691     -2.39848445182832      0.55185427582614
  H   2.51259562029570     -3.42281181223444      2.97512552905016
  H   1.83370226739312     -3.33041468901912      1.49406201632128
