31
Coordinates from ORCA-job 22433opt
  C   0.68035252925605      0.83420666717262     -0.43022203719747
  C   2.17295015456725      0.57125582423626     -0.14240573209444
  C   3.00169722801361      0.35625535337532     -1.38283780147253
  C   3.29231957044228      1.53486948564518     -2.18592282059660
  C   3.24811426736382      2.90507871620910     -1.57063040205268
  C   3.70893485907590      1.37100861457955     -3.47045983836032
  F   4.03450090323990      2.47186451125143     -4.21691482527081
  C   3.89595496322331      0.12518861168579     -4.09946986066284
  C   3.65949348379235     -1.01227285029520     -3.31149771615780
  C   3.21225501404736     -0.92872749445009     -2.00493359030837
  C   2.98094660947934     -2.20429761035543     -1.20727837958903
  N   1.55555744175601     -2.47418039695037     -0.87394285996048
  C   3.42838957024103     -3.50821118327676     -1.91355386208569
  C   4.85842160746936     -3.64833642357262     -2.17523884902674
  N   5.96895199394244     -3.83899648979660     -2.38742904564118
  C   3.71614750428584     -2.16915889168115      0.08255458560707
  N   4.29731074493785     -2.18845789740718      1.07139859982852
  H   0.11264144261638      1.02624164130727      0.48630081786174
  H   0.22191335015095     -0.00998247856328     -0.95008776609680
  H   0.57434215766036      1.69870216603357     -1.08760355067576
  H   2.26754427117210     -0.25415834983090      0.56657213033888
  H   2.55639520192220      1.43386361160494      0.41106979150406
  H   3.95039186486038      2.97066390685916     -0.73071569206595
  H   2.26039570122369      3.15357095672059     -1.17047997957398
  H   3.51621348826579      3.66672808175063     -2.29985824701545
  H   4.22496223273109      0.06859434558292     -5.12552631105612
  H   3.88175675317689     -1.97193085606183     -3.75948747308853
  H   1.03786213594650     -2.28545623733475     -1.73015973715505
  H   1.23708930134768     -1.77546884696653     -0.21296872516163
  H   2.88712396395627     -3.57849058374093     -2.85831187277110
  H   3.11406968983589     -4.34096590373071     -1.28595895000283
