32
Coordinates from ORCA-job 22439optt
  C   3.12420515434806     -0.04153305437104      1.69462390648777
  C   2.65676480050336     -0.13353905987643      0.24373783040842
  C   2.92048654346072     -1.49730950898911     -0.34528369626934
  C   3.73234155616690     -1.64799840807069     -1.45532542657201
  C   3.93930639573474     -2.95214871189198     -1.90684562408630
  F   4.71914346209963     -3.15471144439374     -2.98204280694038
  C   3.37144587239649     -4.02723568330093     -1.28483287700846
  O   3.56042427406642     -5.30563462448853     -1.73032777964571
  C   4.50602152663547     -6.03595582770140     -0.95751128784963
  C   2.52268557274830     -3.76570890323730     -0.16511806858404
  N   1.93763002957202     -4.79369553523645      0.44868264075258
  C   0.94781005624463     -4.70018719538527      1.49961655549074
  C   0.64319068856667     -6.12348112126765      1.91746405702430
  O   0.72410344941061     -7.04666949801723      1.00519398329062
  C   -0.48355180044079     -6.27504756771797      2.91037969203899
  O   -0.70349408895719     -7.65052178961831      3.15910002680708
  N   2.32624552588804     -2.51674817553100      0.27866123284100
  H   2.88541998299876      0.93263011894364      2.12486361296124
  H   4.20323191197558     -0.19204943200848      1.76264364003563
  H   2.63771413411413     -0.81660235857557      2.28551742139905
  H   3.14674234498066      0.62877117144728     -0.36537768912151
  H   1.58039046093992      0.05237036576572      0.20238531878187
  H   4.19794625574799     -0.81244890253764     -1.95712509051529
  H   4.49290757872300     -7.05740042528507     -1.33063470774927
  H   4.23229335659548     -6.03463672480798      0.09999851320495
  H   5.50452086587258     -5.60669593047358     -1.08069160914218
  H   1.93922251613343     -5.72409957993311      0.03479374726315
  H   0.04925449945427     -4.18508317182695      1.09748884617583
  H   1.31670243275665     -4.08689539831343      2.32524435859088
  H   -1.41930866882431     -5.83512226798432      2.49840474362729
  H   -0.27236541874673     -5.75982924976082      3.85368540339380
  H   -0.27843127116555     -8.05778210555457      2.38163113290892
