30
Coordinates from ORCA-job 22438optt
  C   1.08053531669376      0.50074961987490      1.15313075038491
  C   2.51192551918833      0.27359827315325      0.68149771696087
  C   2.95005252020295      1.31461694589367     -0.35773019741438
  C   4.35215486189298      1.16734091447160     -0.82055985400128
  C   4.97204635376830      0.74779670025819     -1.97644030026452
  C   6.37184778654090      0.89981171150051     -1.67646890211992
  N   6.58952464363940      1.36864741005529     -0.44697750615546
  O   5.30245574616709      1.54148326635190      0.10082715437332
  C   7.35713235374840      0.54080833617774     -2.60798333703033
  N   8.72523436833863      0.73139857118306     -2.31902256741698
  C   6.91627510296471      0.02652185142549     -3.82316796138370
  F   7.84590534254677     -0.37017723274623     -4.73690005855909
  C   5.56784709176012     -0.11019091928179     -4.12501244758564
  F   5.25513735372902     -0.60929627326920     -5.34870352022011
  C   4.55432541103682      0.23461959321630     -3.24060023636635
  C   3.10962211667805      0.09351607729191     -3.57939566102710
  N   2.49339167837919      1.40366470439786     -3.88887293925654
  H   0.77375753385588     -0.23793491047584      1.89577259092300
  H   0.38213653063516      0.44278968071544      0.31423836998723
  H   0.97277678285551      1.49152721508317      1.60135195207334
  H   2.61234974411712     -0.72256206459960      0.24328437103721
  H   3.20097829207489      0.31447630451280      1.52796876651057
  H   2.82123640357081      2.31124735125345      0.08909759887392
  H   2.27642221318077      1.26356624946354     -1.21744839365336
  H   8.86471807539388      0.76632264975429     -1.31616946454804
  H   9.30835511364702      0.01912525513884     -2.73750158813796
  H   2.59693144885044     -0.39440508730289     -2.73544515771535
  H   2.99237974004950     -0.55297278936175     -4.45009075580400
  H   2.93380685596350      2.11103159393436     -3.31004960938609
  H   1.50573769852996      1.40087900192973     -3.65362881307812
