26
Coordinates from ORCA-job 22449optt
  C   1.50414613091345      0.36132549040716     -0.78230878005707
  C   2.64636425992605     -0.14954713671221      0.08205400127486
  C   3.09419267806307      0.88895757525782      1.12616202032638
  C   4.26335062847108      0.27029337925628      1.88800988888324
  O   4.31403276713619      0.11012726637173      3.07483995686566
  N   1.99793921761416      1.15454827666116      2.04166298567132
  C   1.69169469431668      2.33498319664653      2.35130753861683
  O   2.22124026279168      3.48841248945350      1.91278738575823
  C   3.17941070182756      3.36773111366026      0.91978648555382
  C   3.70417534130922      4.52485467853245      0.31791353520404
  F   3.25428173322566      5.71737107216545      0.75553738274061
  C   4.62961739384860      4.43239208570410     -0.66612935809802
  C   5.05667635256927      3.12892006533655     -1.08531176542548
  C   6.02400579348703      2.98437252439165     -2.11537323072857
  O   6.57705831962137      3.92542735541255     -2.72355963248443
  N   4.54058354216098      2.00119944741976     -0.49340015866072
  C   3.64515947739710      2.14136187369665      0.45953825151101
  H   1.19062059191705     -0.39955831582026     -1.49843145335446
  H   1.81531752102984      1.24639122379639     -1.33945246582352
  H   0.64555622939117      0.62553457271160     -0.16334584638665
  H   3.50796428228434     -0.39314786131702     -0.54099013390399
  H   2.33987670219509     -1.04852213824354      0.62451087735628
  H   5.10156239078841     -0.01748778404154      1.22593396817091
  H   0.89477628941216      2.53332443824980      3.06141830166225
  H   5.04848029056956      5.30758152508751     -1.14247966584649
  H   6.26991640773318      1.93415358591565     -2.35468008882605
