28
Coordinates from ORCA-job 22451optt
  C   3.32110254488068     -1.42967744464675     -0.13172879441157
  C   2.70014457518596     -0.04939653667794      0.08037049751500
  C   1.17618481847257     -0.14853834949187      0.24891407358472
  C   0.50605766444530     -0.78605423961813     -0.88176372542158
  N   -0.01026138259585     -1.29127280097645     -1.77266153712635
  N   3.17986016410448      0.68161551716488      1.24227391246471
  C   4.64081106533662      0.89016470994141      1.33233261534035
  C   5.11146223901405      1.80142696653299      0.21078631366943
  C   4.97372823207237      1.44902176743912      2.69913991396071
  N   5.18740168669426      2.78553866021298      2.79226511054064
  C   5.62049491604825      3.43131811158796      3.84183509885823
  O   5.78090777086786      4.61636844265048      4.04007387849360
  S   6.17070673678951      2.39985730546823      5.39786100553235
  C   5.45623298203485      0.87652044243122      5.02640944896884
  F   5.18227864961649      0.05294520563440      6.06744237314790
  C   5.00821178268316      0.56537250016884      3.77532353592534
  F   4.53801195501136     -0.70658143396949      3.56951988182014
  H   2.84959939677699     -1.94851455599222     -0.96852822564014
  H   3.20475532494808     -2.03555433373456      0.77082327480020
  H   4.38621483027630     -1.34539130019247     -0.34490310132325
  H   2.89126270840413      0.56352183961671     -0.80448313283382
  H   0.76618238245144      0.85172942018730      0.39044983941360
  H   0.94719688587920     -0.73033064802595      1.14631589758026
  H   2.89111234359803      0.19591990414483      2.08694004706036
  H   5.16136161528779     -0.07360514410294      1.24628659724600
  H   4.55411224075884      2.73645074345462      0.23765747007609
  H   4.98340437287721      1.32517124874683     -0.76438523832245
  H   6.16646149807993      2.03697400204594      0.34543296908062
