34
Coordinates from ORCA-job 22452optt
  C   2.55120871034985     -1.73107389660368      0.75807353012278
  C   2.71561502435031     -0.30509380239441      0.25746989685755
  C   1.37746123813704      0.38517622621873      0.07695906123093
  O   3.44888727839724      0.48860495505434      1.17927465039136
  C   4.84371078481641      0.22257555608608      1.27023125236454
  C   5.55586252312598      1.39115456663612      0.60010164505578
  O   5.10721969634031      2.62733141266144      1.12195274620745
  C   5.22689241747552      0.03331863494643      2.74503346787115
  C   4.65735867241560     -1.18811085796664      3.35919452753875
  C   3.47754648096172     -1.29609331629437      4.09700033970849
  C   2.85332282875205     -2.51488532464410      4.39853531084812
  O   1.81123784113680     -2.69221563605024      5.09571433214934
  C   3.53871714519608     -3.70914845622665      3.80689627787303
  C   2.98037547975084     -5.06368587688400      4.10126297841211
  C   4.60101233438466     -3.50957498500646      3.03459507687990
  F   5.26319611675632     -4.50388851329783      2.40970498053823
  O   5.16783188977697     -2.34907218708984      2.69530011649601
  H   1.96064443954011     -2.31032578658029      0.04457672048812
  H   2.05185537074003     -1.73125077706428      1.72940066018589
  H   3.51491946562870     -2.22379262267930      0.88559242431799
  H   3.25282556329581     -0.30910304071127     -0.70323413478981
  H   0.86050130218242      0.42369149615958      1.03727641305076
  H   0.75566598301647     -0.16471979054665     -0.63091281027204
  H   1.51384155568265      1.40403900242477     -0.28834792309276
  H   5.09328626206981     -0.69825358471205      0.73264727481868
  H   5.37818716531623      1.35432072748463     -0.48339730425843
  H   6.63250575825393      1.32985030385026      0.77193046964101
  H   4.15821863357313      2.51234674338805      1.26434760043740
  H   4.88582416370178      0.90526381280506      3.30646139496018
  H   6.32587625258047      0.02374399944200      2.78865976074517
  H   3.04705238584491     -0.38257701282395      4.48999613758485
  H   2.97840933738645     -5.23678340451524      5.17944529111030
  H   3.54276160844488     -5.85477523178795      3.60653844576985
  H   1.93516829061838     -5.10499333327827      3.78871938875722
