30
Coordinates from ORCA-job 22461optt
  C   2.98981099798684      2.92043442101122     -2.73363115086185
  C   2.50220562008898      2.56394855062005     -1.33410024988761
  N   1.03603201201086      2.65564629861075     -1.20532649327870
  C   2.97019579612244      1.16823207743146     -0.85769101202973
  N   2.37834530903610      0.04989117961949     -1.58804668308773
  C   4.47369362609920      1.05232163113117     -0.92831623731387
  N   5.01255725905257      0.56502408096133     -2.10682411317985
  C   6.35565997426037      0.49213281586273     -2.15503824391403
  C   7.20453981384853      0.85533513596629     -1.13911750002957
  C   6.66960482996665      1.35066828713726      0.09419064188406
  C   5.27279252699768      1.43736224717023      0.10860834383761
  F   4.68537881966148      1.93490722968138      1.23308418351320
  C   8.70308207052389      0.66523326781499     -1.21178746297260
  C   9.20003450593090      0.04340397222355     -2.44211566990734
  C   9.63402057155496     -0.47471721117801     -3.43026350725806
  C   9.43727746047269      1.93249968522629     -0.98133405185344
  N   10.02268571579778      2.89806676082581     -0.78141931842240
  H   2.62768593613575      3.91233439224646     -3.01797591356223
  H   2.61162900395958      2.19600683363122     -3.46009525987550
  H   4.07750226179079      2.90297308664239     -2.79227437739547
  H   2.92148522959241      3.27546513944769     -0.61712206945333
  H   0.60443468867068      2.16362193477981     -1.98250222576159
  H   0.74981488422895      3.62337573898336     -1.31011438861235
  H   2.65665223851459      1.09831069243575      0.18586496479697
  H   2.91874965972489     -0.10429232525841     -2.43385170046977
  H   1.40570165280762      0.21429740314000     -1.81100976088010
  H   6.77359365641831      0.10118546673319     -3.07824763536420
  H   7.27469055302939      1.76711805833975      0.88647808262613
  H   9.00003336609418      0.01954586338647     -0.36702464267635
  H   10.00410995962085     -0.92833271462370     -4.31699654861023
