32
Coordinates from ORCA-job 22471optt
  C   0.61277105503284      1.03552597314684     -0.54629558579991
  C   1.97950808565025      1.65946978754180     -0.32464441319774
  N   3.01540156254126      0.66530530592977     -0.57378896209383
  C   4.37273003925834      1.21509019655981     -0.69915064657723
  C   4.75658310144962      1.86307632238601      0.62806793280209
  C   5.34558690382214      0.09553404042766     -1.04481169955842
  C   4.87563509413630     -0.96633137217862     -2.01777682610520
  O   6.50813463366906      0.11486159869891     -0.66913480970063
  C   4.56079397280835      2.15104850716150     -1.91049278772450
  C   3.86778355371858      2.02979825291599     -3.14487183067738
  F   2.63627786923840      1.41005040305031     -3.17889699546114
  C   4.31066898988661      2.53979912715221     -4.32827283659403
  N   5.47620669803061      3.21905801131877     -4.47130614960714
  C   6.15775736239940      3.40646452229926     -3.32787064130495
  N   7.34621485731882      4.15275760293073     -3.42726501629058
  C   5.74505264392436      2.92272949967065     -2.11111399210086
  F   6.48305266557525      3.31491027447677     -1.02563134001192
  H   -0.18592976441895      1.74388595077637     -0.32047686343450
  H   0.48913672929832      0.15461571336019      0.08652519092810
  H   0.50568603010324      0.72686040596826     -1.58864812251390
  H   2.06689225284162      2.00349531110363      0.70912174329545
  H   2.09326864379771      2.53900726450060     -0.97195172644511
  H   2.77860619719354      0.20147005153303     -1.44204722729790
  H   4.39546641000123      1.22370295688830      1.43658953815564
  H   4.30865624795068      2.85363699464837      0.71878835397370
  H   5.83475169412355      1.95668445462130      0.70073976343377
  H   4.45433343631472     -0.51954941523976     -2.92420291152336
  H   4.10752896472868     -1.59323037766743     -1.55912349373404
  H   5.73204115533669     -1.58067274655732     -2.28753935335175
  H   3.68295341844075      2.43221972622326     -5.20674463718954
  H   7.27768070374822      4.81949584323292     -4.18360256793964
  H   7.61176879207938      4.58622981311976     -2.55517108635342
