35
Coordinates from ORCA-job 22482optt
  C   2.03685300531546      1.02010813367733     -0.79019430829592
  C   2.47304922022720     -0.12824274601340      0.12734689942327
  N   2.96739891231217     -1.32138205578977     -0.53286419885333
  C   2.05441683884404     -1.83102511952329     -1.53640681998091
  C   4.34959461444191     -1.35894948162867     -0.88068965248156
  C   4.99012788749126     -2.57209174749217     -1.12508066565985
  C   4.41546502495391     -3.96964052658779     -1.07901164363265
  C   5.67010932905793     -4.84581616026494     -0.92653252261352
  C   6.77437578511197     -4.06284362142833     -1.65270840544915
  C   6.35082793965027     -2.63130970896363     -1.42352028196619
  C   7.17113147227082     -1.49184869513551     -1.46960216941449
  C   8.66808308129222     -1.57932083576282     -1.57606689216304
  C   9.20321400155401     -1.92083145131618     -0.19311189356084
  O   9.04411440381678     -3.07462281310942      0.30381490872762
  C   6.49491120642499     -0.30294653282336     -1.20839079277859
  F   7.19984894719105      0.86040976819464     -1.21720100965743
  C   5.14769725101227     -0.20010063446390     -0.93550030150880
  H   1.81358161685297      1.90898706861340     -0.19692717830347
  H   1.13546610858087      0.75723069780337     -1.34645722049935
  H   2.81083655498118      1.27416876986617     -1.51415164263398
  H   1.61177309280565     -0.42025801428732      0.73966952733067
  H   3.24685339316700      0.21267824492253      0.81506682322820
  H   2.03579351373427     -1.21900055344644     -2.45074579664959
  H   1.04342788001123     -1.85843605553656     -1.11981283919873
  H   2.32888835049899     -2.84386333423284     -1.81869176269138
  H   3.90567720871277     -4.21483829790992     -2.01986689274217
  H   3.68800801103226     -4.09719305924176     -0.27351144043955
  H   5.52974455926112     -5.85843306343506     -1.31045704987287
  H   5.93849301189620     -4.91119116144673      0.12995895533360
  H   6.76513679669449     -4.29824263527641     -2.72712029021868
  H   7.76929634690402     -4.25690754140655     -1.25495668275989
  H   9.07766031268276     -0.62745268213667     -1.91749647940033
  H   8.94301777106018     -2.36752364264013     -2.28807625260018
  H   9.38907411128565     -1.04430497220077      0.45376693898701
  H   4.75105243886988      0.78803446042302     -0.75147096700389
