32
Coordinates from ORCA-job 22480optt
  C   0.94774191640583      0.26665001735277      0.07999843177152
  C   2.46010069123828      0.07665909757325      0.13359588136842
  C   2.92524742283459     -1.10483476470297      0.99723301941330
  C   2.30561584679087     -2.43032956232946      0.51431829561918
  C   2.81493949380995     -3.64220546864015      1.28181736551830
  N   2.53514357840511     -3.50508833410597      2.71254831077825
  C   4.41172032363774     -1.17546479227437      1.05595421361763
  C   5.22868946398903     -1.42059875263297      2.11320359604679
  N   4.98091364085697     -1.55688808945185      3.44134443217871
  C   6.09615854595575     -1.80368216224917      4.17367175558272
  C   7.35932915031157     -1.89705239779568      3.59554915786958
  F   8.42024609546177     -2.11138684089122      4.40771104951474
  N   7.66905304852212     -1.80590446982622      2.32918533071557
  N   6.52412432455433     -1.62646265113440      1.58378863396980
  C   6.53868313734643     -1.48390083830319      0.22093635288767
  N   7.51904145371702     -1.47240913647762     -0.61256362363733
  N   5.20598126018082     -1.31597428294768     -0.10974132997856
  H   0.68719595040659      1.18623306082837     -0.44748649226094
  H   0.53058237786244      0.32603246362240      1.08789225515936
  H   0.45564819299279     -0.55959519756638     -0.43392227727571
  H   2.93108535285852      0.98316134806235      0.52106840146679
  H   2.83773541533613     -0.05718901201392     -0.88696899450171
  H   2.58771581448535     -0.92898503978411      2.02376285657548
  H   2.53309239735839     -2.56115182631151     -0.55021120541756
  H   1.21865771418514     -2.38343060857282      0.62135279745857
  H   3.88323843570108     -3.77295792184056      1.06830093939888
  H   2.29659892272904     -4.53259415228749      0.91511306221078
  H   3.16620338658753     -2.80975785377351      3.11504715594840
  H   2.76198920994609     -4.37342264240661      3.18299435688225
  H   5.99482855796098     -1.92234340150960      5.24448384280916
  H   8.38026963459387     -1.60324025763635     -0.08896331430107
  H   4.99942924297775     -0.85888552997328     -0.98101425738900
