30
Coordinates from ORCA-job 22489optt
  C   1.04797843815884      1.77416674579081     -2.26191510865117
  C   2.55128475984689      1.52348946638678     -2.24494534025955
  C   3.01927660228299      0.80850531043051     -0.98087287924806
  N   2.42475947753499     -0.52806187447784     -0.78506467603656
  C   4.52441559366875      0.68813235715765     -0.90647975480589
  N   4.96442820807268      0.03015324281111      0.24450457455144
  N   5.25075260399037      1.33768184897829     -1.76687205406245
  C   6.57210542944176      1.41056643695429     -1.85048923536383
  C   7.24053303350656      2.21354402160457     -2.77980758258841
  O   6.48102586985341      2.87610783141430     -3.70132716618965
  C   6.59469468990516      4.28475116972130     -3.63249208411123
  C   8.64184152895916      2.36622068414252     -2.76469264850671
  O   9.35234233849629      3.06036819761826     -3.53729047372851
  C   9.22306285392661      1.64304253747761     -1.62640448495154
  F   10.51881567356415      1.85805061683118     -1.39950903450981
  N   8.68292434531622      0.83736299831762     -0.79884259211147
  O   7.33401526705683      0.57244317691781     -1.02653766227358
  H   0.75393959280106      2.33496999819324     -3.15042470598904
  H   0.73837224526952      2.35230766185282     -1.38698389837180
  H   0.47672756187452      0.84257066753476     -2.26361760608296
  H   3.09554794878960      2.46395469472577     -2.32831920389649
  H   2.85382925317750      0.93077492588303     -3.11274442117203
  H   2.69162282067762      1.39748799149934     -0.10986974291977
  H   2.61678460581399     -1.09719236976130     -1.60526026011607
  H   1.41758127820391     -0.45832939966438     -0.69637061589889
  H   4.33955743827792     -0.71108525778176      0.52695572483784
  H   5.94177621229661     -0.21817230097650      0.23622020283938
  H   5.96696837375239      4.68609830417387     -4.42825547699216
  H   7.63030300801546      4.59733619310148     -3.77477304278333
  H   6.22373294746807      4.64475412314280     -2.66651875060761
