30
Coordinates from ORCA-job 22485optt
  C   0.91166990313920     -0.15400876323560     -0.15906221948385
  C   2.42992431381827     -0.08241957539168     -0.08117062593176
  N   2.97456963159589     -1.34712054147248     -0.57739912729424
  C   2.98377902774260      1.16524987566846     -0.81516703334739
  C   2.46448010804902      2.48103797062706     -0.20799354605534
  N   1.26540071190239      2.94367131842247     -0.92341609933349
  C   4.49505092710092      1.11131661375210     -0.88773356372519
  C   5.26049995719846      1.27809372900834      0.22241536561575
  F   4.65076261087970      1.57135920191054      1.40940209519542
  C   6.66512556048825      1.14412473230710      0.24166116190978
  C   7.24395355125096      0.83021454606421     -1.00210108080223
  N   6.59348725452467      0.66866191671615     -2.12477802475705
  C   5.21638319788559      0.77951168625727     -2.09996972434748
  C   4.55191075947869      0.85658336749149     -3.40349206255490
  F   3.97896119634084      2.09190367543021     -3.67793629435389
  F   5.35023470699454      0.59957451368979     -4.44063564878308
  F   3.46962325509272      0.01303094938537     -3.56262978680780
  H   0.55479061264659     -1.02215415808496      0.39703341433566
  H   0.60151055523181     -0.26243329412138     -1.20280697739398
  H   0.44266703080625      0.75108829711262      0.22425297457797
  H   2.73026164257279      0.00227089467564      0.96811621201335
  H   3.98946604350777     -1.30450827490467     -0.54133849209530
  H   2.75518119560656     -1.42827483073072     -1.56717790384849
  H   2.58983185541660      1.12043638735325     -1.83187511456496
  H   3.27185755108810      3.21879631765506     -0.22625924498002
  H   2.19686787202779      2.32635738573582      0.84109843798133
  H   1.49609759375646      3.05723623030141     -1.90547783124471
  H   0.98755012241868      3.85753453728482     -0.58423911788880
  H   7.23768393955353      1.29674716323673      1.14299562494533
  H   8.32541731188415      0.71511812785554     -1.06031576698060
