30
Coordinates from ORCA-job 22492optt
  C   1.20597883509766      0.14513088395546     -0.02351949441816
  C   2.69740295243127      0.12468002080195      0.04062489296155
  C   3.54937194228954      1.20706909061385      0.04009618863626
  N   4.84306712797320      0.74573737927384      0.11182725161250
  C   4.85435996141147     -0.64626972899749      0.17969388938837
  C   3.50627229392632     -1.02757944873306      0.12634997075830
  O   3.00016987221163     -2.32060058155299      0.21941456052034
  C   3.39183678783714     -3.20944819480490     -0.71157362923106
  N   3.00323809531579     -4.40766640876652     -0.74677778734452
  C   6.09766549438261     -1.26152453641880      0.27654637760077
  F   6.12023644768793     -2.62512663574020      0.32981220291046
  N   7.28339793599442     -0.63917995402830      0.34685362250578
  C   7.21154148867716      0.70147694298454      0.27255279409698
  C   6.07386730144181      1.45420102462758      0.14204720630826
  C   6.02626340923770      2.93439761171222     -0.00173778083026
  C   5.70872462137458      3.41162430890856     -1.42179553778559
  N   5.51906691818560      4.86836822382449     -1.44341880512409
  H   0.83952340990511      1.16923133623244     -0.10504501922226
  H   0.76129343278232     -0.30670629523773      0.86680149916918
  H   0.83562948969072     -0.41812944132801     -0.88431646628568
  H   3.32347893790434      2.25882571029737     -0.01071648031340
  H   4.08719223997134     -2.80925424783606     -1.44755992031635
  H   2.37519142936052     -4.58329751045647      0.03887750647257
  H   8.15703774076671      1.23697426861118      0.31546424804705
  H   6.98925330854280      3.35253666818521      0.29893358899917
  H   5.27421709086285      3.36666391848677      0.67660608553480
  H   4.84039361038407      2.85839416579692     -1.79695359948275
  H   6.55320721632769      3.16400507663159     -2.06737687000756
  H   4.76261703025679      5.11793667917325     -0.81479381846891
  H   5.24050357776882      5.17752967378330     -2.36691667669173
