31
Coordinates from ORCA-job 22499optt
  C   0.97249796445451      0.13641564932361      0.50782037999327
  C   2.43112781323083      0.05341649873546      0.20912753002067
  C   3.34273707008135      1.06150829829120      0.04305031455382
  N   4.64543117080357      0.58457484878442     -0.30393873037227
  C   4.68081340221715     -0.72194036715394     -0.68637117175751
  O   5.61504870248975     -1.33120348171008     -1.18652855941100
  S   3.12228052028941     -1.47906111329860     -0.28373126262831
  C   5.76318018867470      1.48223122122277     -0.31314833069256
  C   5.47741239479813      2.83172799235966     -0.42283999912956
  C   4.18219259460785      3.35446800899939     -0.31227892492276
  C   3.89382461416026      4.81888441940598     -0.45653999645372
  C   3.17286051385135      2.45610313815054      0.00249587668628
  F   1.89435828503763      2.92727183591845      0.16101481163444
  C   7.16625602479412      0.99487732019293      0.03765532879893
  C   7.14170532189378     -0.10705722242207      1.10132525582564
  C   8.00966605524732      0.57646285521313     -1.16555915695270
  O   7.90054493373345      2.10563295940688      0.59061605820423
  H   0.73752775287608      1.08042169538911      0.99463698190094
  H   0.66720041942133     -0.67502465906598      1.17676309518578
  H   0.34989038567583      0.06134474494943     -0.39277215783360
  H   6.31056001679094      3.51796054774117     -0.51369248916568
  H   4.82830216590395      5.37442112532235     -0.54925681125601
  H   3.34571142719017      5.21044797173026      0.40563738251153
  H   3.28478601388329      5.03738176163850     -1.33966076966545
  H   6.77799029597301     -1.05025369222302      0.70100203088754
  H   6.50877004807136      0.19584643304769      1.93930490664439
  H   8.16202297298116     -0.24216158732858      1.46507336066633
  H   7.55519091150263     -0.27629440501306     -1.66154777504026
  H   9.01904643896101      0.32025407084062     -0.83272411142161
  H   8.07245168455193      1.41564291440942     -1.85942787953874
  H   7.30961189585200      2.53770021714232      1.21749481272793
