34
Coordinates from ORCA-job 22497optt
  C   4.62316759421715     -2.27722042728853      1.88665968486348
  C   4.38641285515984     -1.21988533964196      0.81506971909352
  C   4.56525509851789      0.18456961641289      1.37600787456984
  N   4.42457178252156      1.23764560825382      0.37593368236531
  C   3.03521561996557      1.41375567708774     -0.00709267300227
  C   4.96993722119045      2.51611235433688      0.86151634373573
  C   6.49706586288927      2.57872876836424      0.96182670362329
  C   7.17001914306075      2.19921783783262     -0.36406389663362
  O   6.97122811924581      0.84208982659472     -0.73871958138658
  C   6.90048489770659      3.96816048000928      1.37503985498796
  N   6.35943942647152      5.01014760273555      0.71857171038838
  C   6.73201246378144      6.21769276003083      0.97767079196492
  F   6.06522256033185      7.17434455876386      0.27172324905199
  C   7.67534230087567      6.71848526495900      1.88496350379159
  C   8.50709076665109      5.89902100280472      2.66028756031437
  O   9.36112942069213      6.22349506403685      3.47166678563725
  S   8.32697747101588      4.08356679216120      2.40044397771336
  H   4.50632086951706     -3.28485351138127      1.48622768153882
  H   3.91811285212097     -2.16013753903522      2.71254387141475
  H   5.63127930507833     -2.19267114021170      2.29633446064218
  H   3.38447670185850     -1.34369409454636      0.39813766843252
  H   5.09502105526318     -1.35537829824702     -0.00599381913211
  H   5.56977094350181      0.25145019678076      1.79463102425695
  H   3.85785484110307      0.35049883760743      2.20864295920845
  H   2.62447547149436      0.48890314743737     -0.41080080752509
  H   2.96199491139326      2.18303539103296     -0.77506524467558
  H   2.41493469952346      1.72469467110202      0.85045262204142
  H   4.53200567560052      2.76999206919305      1.84051296846347
  H   4.66397659453170      3.29763704868987      0.16529160901583
  H   6.85799729799374      1.88140934888501      1.72411973001088
  H   8.24611269288155      2.34918283381097     -0.26939773344910
  H   6.80363652494066      2.87972119293398     -1.14270526210536
  H   6.01015350140866      0.71412314424346     -0.71074643393651
  H   7.80030345749455      7.78715925425094      1.98330941471993
