30
Coordinates from ORCA-job 22501optt
  C   3.89945462198281     -0.31571700491285      0.87557392787597
  C   2.72082690772411     -0.21819992066857     -0.09875539549994
  C   2.97975056532044     -0.93314773266146     -1.39589694246832
  C   2.93384450131480     -2.35522824434357     -1.51920208417677
  N   2.63300824850215     -3.31277930843133     -0.66435322939275
  C   2.25146884092797     -3.25060897122666      0.59747367942754
  N   1.84956152868297     -4.46515061333331      1.22217237491169
  N   3.27793559612152     -2.82178324909690     -2.80575039674374
  C   3.32328330160986     -4.13359386499298     -3.22900958012317
  C   3.71066054784391     -4.10460102786616     -4.54645198464190
  O   3.89158452944317     -5.18384522276183     -5.38246205338034
  C   3.91322133874488     -2.77416730616445     -4.96457225981210
  C   4.34187272656894     -2.27949299891057     -6.30449567366742
  C   3.63417495520912     -1.99028840765829     -3.85091078847460
  N   3.67566549611549     -0.63926001283909     -3.71550905247437
  C   3.35797306653108     -0.21672727746645     -2.52851512013897
  F   3.40788157500120      1.13889173192993     -2.39519081034336
  H   3.67805287279832      0.17363043724116      1.82872513200451
  H   4.77834415027668      0.16195410059057      0.43818261930932
  H   4.15105860911021     -1.35913820702776      1.07334178972424
  H   2.52752759294645      0.83245617902066     -0.31374725312416
  H   1.81407471195287     -0.60070136254340      0.37229820889929
  H   2.07890916590360     -2.36163952585288      1.18882015340890
  H   2.08987995419892     -5.23434452886791      0.60767502074150
  H   2.30091823342695     -4.60925931113420      2.11869948951907
  H   3.07581465353298     -4.93921494576346     -2.56258733006869
  H   3.70810696208182     -5.98011492104860     -4.87774655623104
  H   3.61426407933968     -2.51833924462602     -7.08594877870780
  H   5.29806203428276     -2.71115738833440     -6.61375109790160
  H   4.45281863250424     -1.19543185024914     -6.26410600845094
