33
Coordinates from ORCA-job 22500optt
  C   3.15096203160506      2.66292066966799     -1.24048793277413
  C   2.71350501755180      2.52071896968421      0.21430785417933
  C   1.20514173308313      2.72526004686300      0.34262464270867
  C   0.71630949666097      2.70542257880050      1.79439098148687
  C   1.01825929216899      3.93858130240827      2.51921500165797
  N   1.22237391494531      4.91138264560669      3.09067751115567
  N   3.04688939801751      1.22252926619885      0.80777697166647
  C   4.47823263214319      0.99007549698121      1.01060965159484
  C   5.01735434469405      1.79896831112341      2.19655989461441
  N   6.43766710219824      2.01163576348945      2.10020240670733
  C   7.31448250150699      1.00403705800728      2.53416067920324
  C   8.62208390834738      1.02235810799504      2.16856246948757
  N   9.15428649624650      1.93286809068254      1.31501750835580
  C   8.26007291891303      2.78454650728925      0.81736230097735
  F   8.74871143035510      3.67788825908996     -0.09719400532571
  C   6.88779198598837      2.89990651414573      1.09165204307635
  N   5.99494942729459      3.70401455556961      0.54923012644592
  H   2.85361155417404      3.63581676513006     -1.63712810567739
  H   2.68979581883420      1.88358357987948     -1.85722362828308
  H   4.23616235943132      2.59880153588556     -1.31198076324638
  H   3.24082595568315      3.28989903701671      0.78512024986564
  H   0.69824528560516      1.91408134466508     -0.19127789707086
  H   0.91126054709837      3.65955189225460     -0.13948769849332
  H   1.20214732196307      1.87588161293046      2.31134042096835
  H   -0.36402872999148      2.55977087984097      1.84548432774215
  H   2.67430656654012      0.49463844126126      0.20491041949687
  H   5.07798834262445      1.25354477866988      0.13382056874600
  H   4.62059006869442     -0.07606755799827      1.19943072854638
  H   4.80430340645282      1.28410215025164      3.13638279258199
  H   4.53379064204861      2.77345372170616      2.22525060976215
  H   6.90690013042532      0.28760477979897      3.23402742452344
  H   9.29465913970222      0.27409411638815      2.57357214577590
  H   6.47836795899376      4.29812877871617     -0.11690970045580
