36
Coordinates from ORCA-job 22516opt
  C   0.96480819983379      1.07300421741820     -1.35501700242614
  C   2.31986563629306      0.52423570530190     -0.93993885658811
  N   3.06557105522154      0.07832229814957     -2.11003666446526
  C   4.29435361550904     -0.58559723614270     -1.82944502827423
  C   5.37725432518132      0.07142934377787     -1.31823609993927
  F   5.25341344203227      1.40706469328544     -1.06764361947308
  N   6.57614952962104     -0.42935335496030     -1.01893995760908
  C   6.74380364820983     -1.75974718134094     -1.31637757562672
  C   8.11926741845203     -2.28994278230979     -1.03968205835729
  C   5.72520900405313     -2.53909099427720     -1.81120009818310
  N   5.91051898189882     -3.92794092557105     -2.06257211595702
  C   6.11857420503967     -4.91663551855910     -1.15256622381334
  C   6.13218030698877     -4.51169209327180      0.29916621803213
  N   6.29128350427453     -6.12172935759302     -1.56996356099308
  C   6.49964734984535     -7.16521554877839     -0.59336001319942
  C   6.91502318041937     -8.45155020523963     -1.29150543762831
  C   4.44624300098145     -1.98335749756510     -2.08825699529727
  H   0.40394197825085      1.43057614571976     -0.48977084635852
  H   0.36696767809720      0.29960147832284     -1.84512226334506
  H   1.09071397878817      1.89717268890358     -2.05856714097559
  H   2.18809732713589     -0.28845260997138     -0.20954352115364
  H   2.90332151896400      1.30403548062703     -0.44819554268981
  H   2.49003859986013     -0.54407286935520     -2.66596877901652
  H   8.30759821014114     -2.32256284702138      0.04013172010845
  H   8.85931935640134     -1.60770359275551     -1.46479680199513
  H   8.27099668997074     -3.28765107154027     -1.45056198548999
  H   5.74401753873107     -4.25912983325720     -3.00288202435451
  H   5.69171091365915     -3.52695068454970      0.43643125533642
  H   7.16071493784899     -4.48004470490566      0.66739461450501
  H   5.59110906310059     -5.24990657107821      0.89095132156211
  H   5.58353768064242     -7.36052659341146     -0.01521064949371
  H   7.27054961437222     -6.89488307338315      0.14244293398327
  H   6.15054872580517     -8.74835215320115     -2.01064573431123
  H   7.06155392484123     -9.26353820156775     -0.57536657184113
  H   7.84427660061527     -8.29536134091372     -1.84098915658069
  H   3.59181925891901     -2.61945320898518     -2.28415573809106
