29
Coordinates from ORCA-job 22520optt
  C   1.01822254669552     -0.27769914249423      0.33177113094678
  C   2.45890111002761      0.11281516386785     -0.01063770086662
  C   2.89055942267534     -0.33968475582783     -1.35819960381805
  C   3.34133002151378      0.36805193064533     -2.42131523734456
  N   3.53616117199062      1.75757236746531     -2.51938663945841
  C   4.05072789589489      2.11603274595420     -3.60806960074932
  F   4.31114900642746      3.41036606720229     -3.81517670522988
  O   4.41886088336795      1.43805145031473     -4.67326125545131
  C   4.10136818510347      0.03459776393889     -4.72099604388839
  C   3.68570324568409     -0.52508513778498     -3.50144669851789
  C   3.38979720120376     -1.84792947342467     -3.03804664836373
  N   2.97806966831092     -1.68856273127852     -1.70874121180258
  N   3.38096424264494     -3.05176318062174     -3.56519338399602
  C   3.86664702099052     -3.11352018722125     -4.91912001002753
  C   5.40598631098682     -3.09979076615307     -4.98239033061290
  C   3.37492084976251     -4.33202711182344     -5.58785743009151
  C   3.01143270621539     -5.32301844299582     -6.15992327444946
  H   0.73731871122596      0.07465662780189      1.32700319759178
  H   0.88933584844314     -1.36199327365776      0.31500147984548
  H   0.32692490279173      0.14822490389597     -0.39646738335981
  H   3.12781316846889     -0.29469471637478      0.75793796782262
  H   2.56566716415509      1.19849664917730      0.01424347849914
  H   4.70719977554014     -0.43340607019560     -5.48049110649609
  H   2.45764720515694     -2.42919944056212     -1.27147137011228
  H   3.49618476399641     -2.26821794536989     -5.52157608251588
  H   5.79126724320409     -3.98720843351281     -4.47925090886939
  H   5.77086934700152     -2.21379239234690     -4.46229124657784
  H   5.76427474681279     -3.08866555977303     -6.01473711116929
  H   2.67169563370761     -6.20160690884525     -6.65091027093696
