35
Coordinates from ORCA-job 22529optt
  C   1.20222506667887      0.76977918008411      0.58429431308847
  C   2.56808031391541      0.19094080043331      0.18924831504381
  C   3.59283777389710      1.31950533892622      0.01472464294959
  C   3.01749251968194     -0.95009264989197      1.09938109395083
  C   3.86195317766268     -0.69178908770456      2.23952115161390
  C   3.88240621919960      0.64303451918405      2.95377548431974
  C   4.36253667489714     -1.82213778441615      2.95865613420377
  N   5.26921189243834     -1.62545921445440      4.03303095752401
  C   3.99133916222322     -3.08084297849438      2.59745237730359
  F   4.60409146240187     -4.14133475277888      3.23159014947636
  C   3.13170815314911     -3.36174789989671      1.52093597915496
  C   2.66422908710174     -2.25577975332889      0.77681566828975
  C   1.86381374624087     -2.57336739454166     -0.48388376216456
  C   2.81957453523789     -2.82433665119096     -1.66630615813832
  O   2.15153147037319     -3.16285865776081     -2.87099547739895
  C   0.98098292498628     -3.73577794392445     -0.35159325362001
  C   0.25313382215545     -4.69189358067638     -0.34794143723163
  H   0.87369510564042      1.52319073185698     -0.14022786349273
  H   1.24970403467860      1.24317760602428      1.56703602867210
  H   0.44749355920403     -0.01681982893034      0.63679264200109
  H   2.44313658213961     -0.22188216116985     -0.81467722738007
  H   3.54960438171115      2.04086498555001      0.82944737901983
  H   3.39293172149523      1.86212495500552     -0.91302919694997
  H   4.60721249193145      0.91759037904582     -0.02240725058095
  H   2.91552777508262      1.16038025981176      2.88915873631354
  H   4.63535389835080      1.34946485770452      2.59315687145123
  H   4.08210152328384      0.47864800613057      4.01612881436358
  H   5.97118683159577     -0.93397067744142      3.77697118731956
  H   5.72478243379121     -2.49651684637568      4.27682812687892
  H   2.74326179895042     -4.35928757401504      1.37262515900351
  H   1.21032272795772     -1.74127342985817     -0.75331797098430
  H   3.52407799401437     -3.60578493799393     -1.36885645371096
  H   3.37886597665185     -1.90968847537552     -1.86286588990476
  H   1.53831258031325     -3.87760332800608     -2.66167960998932
  H   -0.38971941903313     -5.53645601153088     -0.29578966039568
