22
Coordinates from ORCA-job 2254optt
  Br  1.03523013094319     -0.47189080155548     -0.31921025702433
  C   2.83814472238336     -0.21909097743948      0.27596160251877
  C   3.69278561317090     -1.29774376918007      0.34524148131044
  C   3.35407389554286     -2.74758060000378      0.36562314117712
  C   3.91886554447939     -3.55489005917178     -0.77930621594350
  C   4.68240499584611     -3.44043958143414      0.51212369005419
  N   5.67612494108036     -2.41016052347345      0.65899156254694
  C   5.07749385570453     -1.17173419812313      0.39306698865024
  C   5.83035242602075      0.01155714948309      0.17812506867103
  C   7.20984916352336     -0.05244136593094      0.11976648854636
  C   8.43104771118247     -0.12461473787412      0.06024005517415
  C   9.78940312546298     -0.21269006452066     -0.00326242541584
  N   10.94430920508221     -0.29361192012738     -0.05868153213635
  C   5.18709184517189      1.30114338975147     -0.01377913734012
  N   5.72769390286059      2.43088990603150     -0.26041086145971
  S   3.40958835235677      1.42554480337833      0.20506606797096
  H   2.46233261407490     -3.09338881811584      0.86885317489309
  H   4.28236592120411     -3.00584763979437     -1.63813054578511
  H   3.45918357204813     -4.51179994570828     -0.98646284692132
  H   4.80520043897909     -4.31660923114037      1.13330550429606
  H   6.57961427451457     -2.56238560694942      0.23014618841421
  H   6.74084374836738      2.32678459189830     -0.31626719219728
