30
Coordinates from ORCA-job 22546optt
  C   2.15893465448740     -0.38814871734360      1.68040584443551
  C   2.39238690126557      0.01841332441690      0.21390558854761
  C   2.08773957064435     -1.20442904896100     -0.65722323481482
  C   3.38814609977591     -2.06040468808221     -0.49050622760143
  C   4.51735913822848     -1.09585878594732      0.00812011963145
  C   3.85296513017818      0.25288214527734     -0.19095517044292
  C   4.23314491617010      1.62651694115210      0.35888617766322
  N   4.88756498972197      1.55859456209310      1.69797745023007
  C   2.89192984976960      2.31616620524546      0.25009389686195
  C   1.82850424062210      1.41552479896250      0.00918865412668
  C   0.48824370991774      1.64673865781361     -0.18277175658332
  C   -0.74813878402556      1.81842331065249     -0.18415559935623
  C   3.77751625311172     -2.74909452291309     -1.76752968830076
  F   4.04774688376735     -1.89544822272274     -2.76764680450455
  F   4.88124631767108     -3.51320696449375     -1.62047302178858
  F   2.81511940533540     -3.57393612162973     -2.22326488270293
  H   2.69224765027751     -1.29853921552853      1.97213646140231
  H   1.08801035662481     -0.56423881542074      1.80986250202294
  H   2.43244840658795      0.41594560967170      2.36094531255361
  H   1.95708914801925     -0.90050736601735     -1.69768548373316
  H   1.20050025687271     -1.75888401804881     -0.35117772925118
  H   3.22625921715341     -2.86881069202630      0.22505402172755
  H   5.43793928297403     -1.22001853968968     -0.56293469470095
  H   4.75083742669350     -1.28593726041580      1.05517601588269
  H   3.79658456412203      0.40762809186095     -1.27464223676639
  H   4.99492194669777      2.08540213265987     -0.28454724805706
  H   4.16570330103464      1.38993773658307      2.39161392356154
  H   5.23080215268798      2.48937135440928      1.91487263303124
  H   2.78844236915380      3.39329562943221      0.22748990024468
  H   -1.54419535554140      1.94262247901013     -0.89921472331879
