26
Coordinates from ORCA-job 22550optt
  C   1.27857289918592     -0.32006329488240     -0.53121455790149
  C   2.79268634931147     -0.21259810157531     -0.42401284619371
  C   3.30398608874844      1.15169990863421     -0.88840865013242
  O   2.74807913250618      2.19129287166829     -0.09997836358789
  C   4.79459052562784      1.22135273408100     -0.80976254413678
  N   5.46370863824074      1.77066173037703      0.20277798078847
  C   6.76920599549005      1.58978700530617     -0.08064072927074
  O   7.73887355347636      2.04869709551149      0.75486283957385
  C   6.94326804770008      0.91831789339280     -1.27546469636864
  N   5.63666006027382      0.70680628840100     -1.70642147328445
  N   5.27773804516750      0.09116263604772     -2.88245462063041
  C   6.35096270737817     -0.24963315111795     -3.55522130873783
  F   6.04216444211158     -0.82378797727438     -4.72855506362188
  N   7.62988477430699     -0.14514160990820     -3.31161664639465
  C   7.99194170006972      0.43866470366879     -2.13566955292659
  C   9.36383418858771      0.58337760202247     -1.75940365358042
  O   10.34220545873698      0.23108906786473     -2.42129560900898
  H   0.92048000172908     -1.27938720958694     -0.15455905137453
  H   0.95987230899699     -0.22784011889208     -1.57176497826694
  H   0.80023157557664      0.47600685482575      0.03990122615851
  H   3.28035917457732     -0.97955774203774     -1.03096252777410
  H   3.11723515088498     -0.35228613539245      0.61116584553982
  H   2.99642153736894      1.30705297672439     -1.92700422585383
  H   3.44827969712271      2.47482336052607      0.50396780616661
  H   7.27734814268756      2.45681068010334      1.49554646738637
  H   9.50340980413617      1.06169193151218     -0.77381106656735
