31
Coordinates from ORCA-job 22552optt
  C   2.90822604630205     -0.54368773128022     -1.38976407793351
  C   2.54402475130553     -0.04225388376338      0.00150265054876
  C   1.04967928694951      0.19807936042248      0.13290305503187
  O   0.54913325393297      1.17535758711875     -0.77768890582420
  C   3.02429498144483     -1.01216409643245      1.08089450020464
  N   4.46021314055238     -1.11524657789079      1.05722428049529
  C   4.96718529427282     -2.03883375283303      1.81193136748332
  N   6.37895607224184     -2.10544213359094      1.79634019810798
  C   7.05525943855466     -3.21696430233712      2.27786241850446
  F   8.38201607420854     -2.94132202939807      2.54803252395612
  C   6.34484054849017     -4.03998268377441      3.17414314727267
  N   7.02922257693154     -5.07509705331217      3.88320335261234
  C   7.75085872232702     -4.57154410385155      5.04419466011374
  C   8.44677520992307     -5.65957589549267      5.74454473901088
  N   8.97105841830348     -6.51094809058184      6.30599566469699
  C   4.98526708940588     -3.83762997924221      3.25855765801421
  N   4.27617569624458     -2.90051203285796      2.59032411312284
  H   2.58742865843310      0.14933199431765     -2.16952083412906
  H   2.42196877704464     -1.50688808032247     -1.57312562660627
  H   3.98515400220143     -0.69324577164283     -1.45347332325554
  H   3.05729147269704      0.91427432307448      0.17795448563042
  H   0.81005377534516      0.49104531308468      1.16166177996269
  H   0.50104744167285     -0.72108509855232     -0.08743579514321
  H   1.17436114109855      1.90610960444032     -0.78429414705493
  H   2.54464979154982     -1.99060212979315      0.92006858392345
  H   2.66413077203776     -0.66845895907372      2.06276138531314
  H   6.77863658543534     -1.61615522167412      1.00917315642529
  H   6.36633496199620     -5.78580464802680      4.16882598272765
  H   7.10627072979892     -4.05700921387949      5.77031148880410
  H   8.49564674362252     -3.85345540805525      4.69854440292135
  H   4.40083854567559     -4.52728930479929      3.86834711506245
