32
Coordinates from ORCA-job 22555optt
  C   0.88543456180711     -0.30944097343674     -0.16395347393275
  C   2.38978763481127     -0.07600177228537     -0.07049313833394
  C   2.97385898629241     -0.77182797225557      1.16127035542699
  C   2.32079241977180     -0.33880834584121      2.45425880163126
  O   2.04865556826994      0.93488588252790      2.59430498302048
  C   2.69725101572891     -1.14495620320945      3.68086537059982
  N   1.62464732653174     -1.62380743814084      4.56966654128157
  C   0.81989713087876     -0.75800618910806      5.02767281986023
  N   0.78769372423212      0.58391852986255      4.81829793319122
  C   -0.18057538606104     -1.26978495322843      6.05968920605764
  F   -1.36137736715622     -0.61071876553039      5.99284280818150
  F   -0.45973930508961     -2.56193354882357      5.93883249601851
  F   0.26843997097916     -1.08046432718870      7.31620132249116
  C   3.10342232586812     -0.54536359396099     -1.35926263817058
  C   2.50801129264601      0.05675643808189     -2.63898684499163
  C   4.54061121499052     -0.25487142883323     -1.32977945831786
  C   5.71096669809720      0.00996953372792     -1.35545769991766
  H   0.43149231494773     -0.04083118222059      0.78855947911509
  H   0.67105166789933     -1.36612297235019     -0.35934005924568
  H   0.42215453171663      0.28668032600790     -0.95226597582905
  H   2.56407237097536      0.99755784454970      0.04760815716728
  H   4.05807333263491     -0.55471075835649      1.18294494303271
  H   2.87818218004197     -1.85841843180728      1.04003494685682
  H   3.37102045041120     -0.52660625021112      4.30428301875687
  H   3.25735096801998     -2.03120302606378      3.37541091945767
  H   1.30088245798484      0.91127218732813      3.92053049911785
  H   -0.05983332596875      1.05571417193426      5.08713414627014
  H   2.99621683099653     -1.63605022565319     -1.41178343341746
  H   2.49217591845078      1.14595243452181     -2.56583084925583
  H   1.48896518901514     -0.29504951859366     -2.79217070879941
  H   3.10529517645070     -0.21925012557652     -3.50871911010128
  H   6.74812212382538      0.24052065413332     -1.34336535722174
