28
Coordinates from ORCA-job 22565optt
  C   0.88656237386135      0.10722381983421     -0.02094930514650
  C   2.41618123219175      0.09320876745227      0.03196616996263
  C   2.95480620186140     -1.33143729602861      0.04752634382560
  N   2.75330231776115     -1.92658275848819      1.35462637788959
  C   1.94679152728256     -2.99132523452685      1.60916805845592
  N   1.17620192147537     -3.65380443344597      0.83708452380736
  C   3.50750669477056     -1.29056035155633      2.41461490109306
  C   4.91218117595691     -1.77842178656023      2.39887933950514
  N   5.97172071512260     -2.21281760796245      2.33068906957669
  C   3.46305238125493      0.22711478856574      2.33807409110327
  N   3.93906385449477      0.81567414772982      3.45562003319231
  C   3.92743069588229      2.18692978790961      3.41897008042396
  C   3.42520620041551      2.88401491125958      2.36812323935980
  F   3.43797991083815      4.25425658779469      2.38273459955388
  C   2.80803684147962      2.27544022557647      1.25355918341767
  O   2.79858148688415      2.93333185283670      0.00776075897968
  C   2.93149634387067      0.84722067051348      1.23354023555239
  H   0.51710670856947     -0.31479315015491     -0.95987884420434
  H   0.52437617170394      1.13136702580492      0.07229261787476
  H   0.47736775822567     -0.47654367318906      0.80698201761754
  H   2.79655636559115      0.58737625793429     -0.86705330705892
  H   4.02962287091916     -1.33094259973026     -0.16369053093185
  H   2.46739521210056     -1.94618572107613     -0.70837911387625
  H   1.99089860685498     -3.29451255984869      2.65625402255402
  H   1.18304424129624     -3.28938641898432     -0.11293746571721
  H   3.08578453367333     -1.57978399866614      3.38044318019684
  H   4.29109717545122      2.71682996320011      4.29256682238956
  H   2.69264848021046      3.87010878380628      0.19741290060334
