33
Coordinates from ORCA-job 22571optt
  C   0.95428589519404      0.84243357354064     -0.28700105209874
  C   2.47803739849559      0.84816834840207     -0.30993115680431
  N   2.96258727638177      0.75866484786637      1.07019669441299
  C   3.05963584747047     -0.25486014688992     -1.21343837532525
  C   2.55281919999684     -0.15321942755773     -2.65593249990272
  O   3.10112348401167     -1.16035802234180     -3.47964900970628
  C   4.57519350578089     -0.28664362487542     -1.19692123720200
  C   5.23066418442270     -1.49551397263871     -0.93901944073566
  C   6.65866282065692     -1.54922103622161     -0.95814288681552
  C   7.58174322954053     -2.53425955568702     -0.74527922354458
  C   7.45069082740257     -3.97149964045440     -0.41813931377267
  O   8.86480128539585     -2.04600342805351     -0.89671355361042
  C   8.74632473571014     -0.70394033808862     -1.21214335606519
  C   7.42351894169912     -0.34636885519314     -1.26628758125228
  C   6.70089297396865      0.82540607979472     -1.53164295767792
  F   7.40115602987048      1.96283428496557     -1.83564879877966
  C   5.31203139858442      0.87236231679953     -1.49892196145693
  H   0.59345185017048      1.57257303616954      0.43783308133777
  H   0.58366675000336     -0.14448136611677      0.00839200122912
  H   0.53056123063858      1.08123808431356     -1.26231658885645
  H   2.81294355829966      1.81694701502805     -0.69309775309343
  H   3.97978796066652      0.74747618319590      1.04165812318940
  H   2.69749847659097     -0.14932726906711      1.44461181683561
  H   2.70515249758321     -1.21502479091884     -0.81453383400060
  H   2.79769297078504      0.84371236253944     -3.04933682790815
  H   1.46885405796784     -0.28020813803652     -2.70341606545775
  H   4.01653548203730     -1.28944204495306     -3.18749628438321
  H   4.65114382220448     -2.38145630831036     -0.70439795197912
  H   6.39343601648902     -4.22304318630565     -0.32949909623033
  H   7.94032943310172     -4.22884046586847      0.52801822654320
  H   7.88603826207898     -4.61300802692578     -1.19317482923783
  H   9.66218557941208     -0.16312321050599     -1.36301841142451
  H   4.82055301738783      1.81102672239509     -1.72560989622652
