33
Coordinates from ORCA-job 22578optt
  C   3.87377492807837     -1.73072571140549      0.47542245890609
  C   2.78699214495329     -0.69881351127700      0.20605349800354
  C   3.01025314100337      0.02723914693697     -1.12151620404224
  N   4.24270872091261      0.74777384669792     -1.07604127986806
  C   4.85431012424078      1.12723825433411     -2.20195919976083
  C   6.22325238590628      1.52416257449636     -2.09135822989275
  F   6.65746557612328      1.77142047679437     -0.83851175083571
  N   7.12167757481032      1.74024701272820     -3.00195502539803
  S   6.74039016869474      1.14715996483666     -4.53071747111769
  C   5.01511014867184      1.48608676476794     -4.64516420619817
  C   4.24774415629579      1.38346333981910     -3.53166576534470
  C   2.79585639469634      1.81089425000663     -3.63453387903439
  O   1.89446143331807      0.72641295765618     -3.89567967624473
  C   2.58599004961839      2.80294045897996     -4.77993496469806
  C   1.11845241703067      3.16835860454005     -4.95575949602650
  C   3.16399322014794      2.19973083627550     -6.05124140929668
  N   4.58955857730532      2.02201230173399     -5.86387441560246
  H   3.74936808344224     -2.21163331570706      1.44832197106334
  H   4.84801901885410     -1.24345249743508      0.44058518796620
  H   3.86107334158305     -2.50954837181470     -0.29199985507642
  H   2.78878395390616      0.05291300503812      0.99977055937627
  H   1.80006615911733     -1.17383547750071      0.20204195039094
  H   2.12324191906642      0.65158195970760     -1.31627576181295
  H   3.02997980235453     -0.75119251982348     -1.91563184792606
  H   2.50865676798176      2.29218567727583     -2.69270733908853
  H   2.22122256923415     -0.03751654096310     -3.41223549259944
  H   3.16480872391201      3.70014880816868     -4.54056953545398
  H   0.53982930467859      2.29201819409681     -5.24869948788682
  H   0.99712385585773      3.93983799551113     -5.71995318873182
  H   0.69915487356863      3.54562363770701     -4.02088945537029
  H   3.00362819519483      2.87103629654056     -6.89859489101150
  H   2.64113117507246      1.25442836251214     -6.25188506009709
  H   5.09492109436820      1.67180321876467     -6.66384073729017
