21
Coordinates from ORCA-job 2257optt
  Br  0.93348926915132      0.28085298228786      0.14096755819631
  C   2.85790185576523      0.27688843019472      0.00981080602733
  C   3.55456826916373      1.44782378755393      0.19993960731626
  C   2.87792335442185      2.72811136430091      0.48500553988111
  C   3.01573659305955      3.84970647748526     -0.53233956808329
  C   3.75006341142804      3.89766960358196      0.76520201094018
  O   5.13260917248112      3.76472467320854      0.80921105962631
  C   5.77257732244468      2.60916953366346      0.37012171401746
  N   7.04620226235027      2.66057567345869      0.27656485997893
  C   4.97825794065428      1.43943053456895      0.09155404373780
  C   5.55790000787918      0.16995906594007     -0.27417011103141
  N   6.85581503633569     -0.14088391097211     -0.49238448412040
  N   7.08976766927251     -1.36517948097913     -0.79461811159024
  S   5.64464970577930     -2.28619367510367     -0.83581497973259
  C   4.68074972100060     -0.93115476717574     -0.42502721984583
  N   3.36242708563404     -0.92969474988042     -0.28190696707324
  H   1.94282884817916      2.66744641173867      1.02141418662247
  H   2.17769995098292      4.51582459481886     -0.68436890666730
  H   3.60350554026701      3.61275565013998     -1.40938591831873
  H   3.42434131986380      4.61095218152822      1.51011800605650
  H   7.34898566388564      3.59521561964095      0.54610687406238
