25
Coordinates from ORCA-job 22586optt
  C   1.33019377589782      0.23134068474732      0.33789991159909
  C   2.80611204258850      0.01409495949492     -0.06493118265579
  C   3.61030680965488     -0.42284049886641      1.15015978795696
  O   4.15825541289134     -1.48601362067638      1.28064326279406
  C   3.73266953732571      0.54796879341192      2.28585688564550
  N   3.40502531947224      1.83482132504187      2.23197300715337
  N   3.71645393175067      2.28395905491596      3.42278752686579
  N   4.22239460085802      1.40832230382111      4.27111724349630
  C   4.24689544009576      0.28751037636107      3.56874098017135
  C   2.95297534834623     -0.89082102592183     -1.25180627540855
  C   2.48309893980556     -2.17258350720080     -1.29885234030015
  F   1.88995448089516     -2.65304189957494     -0.15985096873316
  C   2.51626656682888     -3.04681839139299     -2.37534607812125
  C   3.03627315562585     -2.69935310525219     -3.64223304968190
  C   3.60647198570340     -1.47717347922706     -3.99896033311647
  O   4.05980505926139     -1.10407462823839     -5.08113235992729
  S   3.73572980763012     -0.19401010089254     -2.66225771865937
  H   1.22944623007793      0.97198261781753      1.13195673872432
  H   0.88541850885053     -0.70840384743735      0.66027532470946
  H   0.78890536091105      0.58318246005349     -0.53955040562833
  H   3.20544995576445      0.99978478616083     -0.32986661630689
  H   3.58231330627773      3.24851917449020      3.67578827809333
  H   4.61489389547585     -0.63835301500466      3.97450075691508
  H   2.10675230756648     -4.03566252101846     -2.21631664421488
  H   3.00193822044439     -3.42833689561222     -4.44359573137058
