34
Coordinates from ORCA-job 22583optt
  C   1.30014687695150      0.06684276747200     -0.65227231144694
  C   2.71999555973071     -0.05223290222529     -0.11015716292232
  N   3.40161159999876     -1.27958195575475     -0.49444974513353
  C   3.00879074397708     -2.44437680362861      0.22189959325085
  N   2.77876551342650     -2.29543371810581      1.54765122155728
  C   2.49130933201089     -3.46188882487681      2.20290901432657
  C   2.46914961193253     -4.71613565381432      1.64903378587759
  C   2.15568721108412     -5.91576164038850      2.49749968410478
  C   2.77286918799368     -4.88942909695336      0.26039251693280
  C   2.38574632081963     -6.11907726153363     -0.50350979099793
  C   2.96609552914746     -3.65398329296802     -0.41076015007933
  F   3.25469816149232     -3.68413009027106     -1.76023644443217
  C   3.56548667807648      1.14246336804840     -0.45983776248816
  N   3.15436974033374      2.35335303351652     -0.50618350801004
  C   4.33071666404349      3.16771287977288     -0.83458915173278
  C   5.54365902619933      2.25231306069567     -0.57581192409795
  N   4.90821126037064      0.95244372692689     -0.72033110309049
  H   0.72465387807770     -0.79503215005306     -0.31208337931264
  H   1.30898019186995      0.07883370714916     -1.74505902488509
  H   0.83188991459442      0.98719125874318     -0.30503165548748
  H   2.67229261365266     -0.08778731365742      0.98192886974876
  H   3.34112944755774     -1.44932873267043     -1.49123091376492
  H   2.29457445396988     -3.35685818845139      3.26781500745112
  H   1.96157951142959     -5.61771524637985      3.52951381552902
  H   2.98872916573021     -6.62967250625146      2.49703419633912
  H   1.27784190259099     -6.45726559484687      2.13102110828513
  H   1.30606858182929     -6.14795607211782     -0.75393038476513
  H   2.60306511376709     -7.02541680724715      0.06440449312835
  H   2.92762025588648     -6.18239807188172     -1.44767294935882
  H   4.35497093952895      4.08112102701217     -0.23976697225346
  H   4.28434734145878      3.45862745293002     -1.89048864605409
  H   5.93862930743877      2.39358805241191      0.43776356360022
  H   6.35230433029623      2.39729958883495     -1.29208897373196
  H   5.31401403273232      0.09667200056364     -0.36937491608639
