26
Coordinates from ORCA-job 22580optt
  C   3.32778677453235      0.35234897441233     -1.12372499385802
  C   2.31406599493973     -0.02633917712362     -0.04658251979023
  N   2.59499319237308     -1.30336796792336      0.58003714683781
  C   2.31777916055060     -2.44874969670407     -0.18335557724664
  C   2.75955025436512     -3.63148620272035      0.22589699553446
  F   2.43833834657290     -4.77455703274912     -0.40867270721480
  N   3.56815613862411     -3.78549810228821      1.32386267530418
  C   3.90957583886136     -5.03944009202963      1.80474604473817
  C   4.92906623841569     -5.21226294903752      2.65476925495559
  O   5.26239623636855     -6.44727989675618      3.15639572407406
  C   5.78429761902790     -4.10371740342039      3.11431215594338
  N   6.83350204143930     -4.26531668723255      3.88299804799695
  C   5.35360922403404     -2.84876301626795      2.63418987311407
  F   6.08042072977097     -1.79265036251232      3.01790316617108
  C   4.24857583967312     -2.61210120314769      1.79618554206001
  C   3.73320935768869     -1.32642233417379      1.46144713082150
  O   4.16176046910932     -0.23913327023599      1.86263984358553
  H   3.06830894078741      1.30891267212668     -1.58315188740582
  H   3.36795905592619     -0.40710259924834     -1.90763047242255
  H   4.31457969404605      0.43741424392843     -0.66881558576614
  H   1.30557006740121     -0.08119988035183     -0.46636781121725
  H   2.31883081120619      0.72672899600783      0.73811262601014
  H   1.72247813699871     -2.35271847831185     -1.07827150888255
  H   3.31021604585325     -5.86238993907781      1.44012706990487
  H   4.66672761949142     -7.10293435562286      2.78361441164884
  H   6.92424617194255     -5.25397423953969      4.10133535510331
