28
Coordinates from ORCA-job 22581optt
  C   0.72344192757490      1.38839744367348      0.80183248239149
  C   2.06742176447037      1.87147446881882      1.31959906609829
  N   3.13787363788103      1.26561193396918      0.54025160622528
  C   4.46327098109056      1.35705277939741      1.03297621575575
  C   5.09177800127883      2.57189590141164      1.20348224344758
  F   4.34518024229851      3.71577700350013      1.12604352766080
  C   6.45367997201526      2.70862845191090      1.38266319127185
  N   7.27278904049404      1.60053454829368      1.29777695262218
  C   6.69629181341387      0.44007450153853      1.16139024743297
  O   7.55460316097433     -0.63239283088326      1.09340114345035
  C   5.31098167118968      0.17437085505133      1.10736988025186
  C   4.79671757898658     -1.17618721927700      1.12980385207368
  C   5.33872190311298     -2.33341018278472      0.62020456358449
  O   4.59043915860271     -3.43868750341872      0.93238716737130
  C   3.52056885861109     -2.99163695376213      1.63408199953205
  C   3.59515685364881     -1.65042106247420      1.78744501857463
  O   2.73898369227338     -0.84373373707225      2.48456539859778
  H   -0.09895075267090      1.85793105279087      1.34440498848560
  H   0.63841544329775      0.30549528558110      0.92371414831517
  H   0.61756358928819      1.62025098250972     -0.25965755077365
  H   2.16771632651446      1.62623487057791      2.38537795151321
  H   2.13695381585272      2.95523978865633      1.22767660287714
  H   2.91778191391405      0.29517800946538      0.35914866618365
  H   6.90165105115864      3.66988163616014      1.59034870609642
  H   8.42241113600936     -0.22710625317468      1.21778880731381
  H   6.25352351790917     -2.51830219631768      0.09049002850895
  H   2.81165754195580     -3.72467793731626      1.98163534236484
  H   2.14937615885376     -1.39747363682565      3.00379775277249
