27
Coordinates from ORCA-job 22594optt
  C   2.66292470898183      1.05510418125770     -0.00742387063305
  C   3.83822679217357      0.12554977067113     -0.00680974820369
  C   5.16430050567748      0.60829109075193     -0.00265047449509
  F   5.31713633552460      1.95206297454702     -0.00447715935797
  C   6.26980126974862     -0.21395583557527      0.00688004987101
  C   5.99105033165380     -1.62185168831460      0.01570339350518
  N   4.72559105060025     -2.12574380715670      0.01646389184720
  C   3.72872985868311     -1.25305347349075      0.00690628666734
  O   2.47206474344177     -1.80776549859129      0.01598049362795
  N   7.09653311659275     -2.31973712635097      0.05199724538172
  C   7.40423265943976     -3.56351958744352      0.25719492211876
  N   8.75132372083174     -3.67790435176119      0.55776630835083
  C   9.60263309775730     -2.63326928881885      0.68992507860185
  C   9.55111704775819     -1.25368043227060      0.55080094634931
  C   8.74376756001749     -0.08842934892935      0.14534733154045
  N   9.66290517854332      1.01209529055187     -0.00990261391342
  N   7.53370859042878      0.31885458912049     -0.04736791337300
  H   2.78308295100487      1.84282341639247     -0.75491221286799
  H   2.53132320974279      1.55378209250381      0.95899558314490
  H   1.75049062860398      0.50356974102704     -0.22693487874239
  H   2.64350630278449     -2.75786932147724      0.01104325598923
  H   6.78205439415740     -4.44871236112423      0.35317363670505
  H   9.13397749046617     -4.59090569505925      0.73394331310365
  H   10.58534232509188     -2.99183089314460      0.97881025714510
  H   10.53820323722560     -0.87589461232586      0.80422266434153
  H   9.17513251324976      1.77636527715609     -0.45501157225007
  H   10.50084037981836      0.75962489785478     -0.51466421445439
