32
Coordinates from ORCA-job 2259optt
  Br  3.63488792944470     -1.42999615346736     -3.40789696386361
  C   4.24061756178435     -0.33719810786434     -1.95425492557822
  C   3.73006254323971     -0.59658425338839     -0.67230943337835
  C   2.62711689590339     -1.55379862410208     -0.32152839372074
  C   1.23060609214998     -1.02141512064278     -0.71753573689545
  C   0.11863830159796     -1.67700441098201      0.10763323930106
  C   0.22351599676637     -3.21652776473877      0.08635968026956
  C   1.19928615919066     -3.56748398502762      1.23970074608920
  C   1.62601985227714     -2.21188956429390      1.83673345648227
  C   0.37448374074630     -1.35200420788088      1.58308246166572
  N   2.79542172824707     -1.71689883906600      1.13581880222296
  C   3.42022057777162     -0.51105121876789      1.67135823805704
  C   4.17381659095171      0.04098140144647      0.48776136901779
  C   5.12799489173918      1.02234382009048      0.52867204617412
  S   5.81999311590698      1.67609356306482     -0.94127082911992
  C   5.23753372280726      0.60415935048756     -2.28237500105104
  N   5.75188944572320      0.79970838122710     -3.45361113178046
  H   2.77201318226804     -2.52646290346817     -0.80479162330237
  H   1.08638151485744     -1.19338050424626     -1.78629939917923
  H   1.20607838497533      0.06059834742107     -0.55626905999421
  H   -0.85810839155525     -1.33387271301161     -0.23879110392065
  H   0.57710959529286     -3.57998424661879     -0.87962983173147
  H   -0.75713249761774     -3.66256411123010      0.26440289372266
  H   2.07489722432534     -4.12128279310623      0.90276917920685
  H   0.69442320894424     -4.16483731963439      2.00097935599890
  H   1.87887116681466     -2.29325608447904      2.89682628757349
  H   0.54019617532483     -0.28861595318075      1.76182808043183
  H   -0.45313986285001     -1.68869300473010      2.21591781642027
  H   4.07450790682238     -0.76353990705077      2.51365754603098
  H   2.68540154275591      0.22521192814924      2.04052195993634
  H   5.49776250345863      1.46082131941288      1.44522372508189
  H   6.45663319993572      1.53142367967862     -3.41968345016720
