30
Coordinates from ORCA-job 22607optt
  C   1.41165604365176      0.83561486560808      0.70458216634265
  C   2.69547041234624      0.27211954802685      0.08281663644244
  C   2.97527968044324     -1.14495451526681      0.44131339418444
  C   3.96715768296620     -1.66458077932678      1.25535725294245
  C   3.96001401301563     -3.06066676051813      1.37487827490526
  C   2.91307120428581     -3.66421704899264      0.61836878409927
  S   1.98760965839041     -2.43987536358547     -0.21638471610178
  C   2.71019539168870     -5.02434136573304      0.59914592779074
  C   1.59618133093574     -5.61977654752227     -0.21452107379779
  C   1.37678196007323     -7.09777516755460      0.05881048417987
  C   0.20397711210331     -7.69205909839240     -0.68789565666208
  N   -0.19004224043457     -8.92346676819438     -0.22785731947832
  O   -0.36652398913332     -7.15780094994572     -1.61298430440042
  C   3.62156184378610     -5.79979772119902      1.38935061425098
  C   4.59342044853232     -5.10584616818255      2.09301830372516
  F   5.43204419601939     -5.86617467810389      2.85544734913230
  N   4.82315332310960     -3.82917621102290      2.13950288302439
  H   1.23954187283818      1.87295715945004      0.40153456479234
  H   1.47048519427538      0.79311393415242      1.79322860878785
  H   0.54873034468849      0.24186522069420      0.39773656939696
  H   3.54817277848396      0.87495252266435      0.40933363667558
  H   2.63101424412390      0.39344211622252     -1.00796795020560
  H   4.69337108831620     -1.04032168409849      1.76173459181045
  H   1.77865450092383     -5.47919568717632     -1.28702206550091
  H   0.66421071944362     -5.07736228054229     -0.01453242077630
  H   1.23811203888950     -7.27132934816199      1.12949385892322
  H   2.26485014364864     -7.67130440040797     -0.22839076241717
  H   0.37581515881307     -9.42434373869496      0.43365666518120
  H   -0.85313185985155     -9.43806270539444     -0.78206502959983
  H   3.57616570362691     -6.87463637880127      1.47131073235265
