33
Coordinates from ORCA-job 22603optt
  C   1.07950371553832      0.19378105845293      0.59490138517268
  C   2.37776340610962      0.98174821172687      0.54333801886172
  N   3.00350940498750      0.85753930573750     -0.75765278456385
  C   4.33903901920287      1.21127007527977     -0.90181831862243
  N   4.81436371980758      1.67765026113117     -1.96748061292376
  C   6.24266395244599      1.94754270273207     -2.01497257253136
  C   6.52331562740699      3.43987874901946     -2.23101664998375
  N   7.92990354936271      3.74234414701332     -2.15580814889313
  C   8.65695160154098      3.51673814240403     -3.19642070495952
  O   8.00115505162151      3.01309328213204     -4.32614874616767
  C   8.71613070315369      2.64410611907697     -5.45352692128438
  C   10.08115361173073      2.85190056044795     -5.49280013036936
  N   10.89626879482494      2.45092571716087     -6.58079640006652
  C   10.28669874830199      2.53991905987690     -7.89167199160286
  C   10.61701409684973      3.44362858664929     -4.36459062461838
  F   11.96340905488910      3.69804457190426     -4.36626106922119
  N   9.97571804322184      3.75740936467138     -3.24511968116601
  H   0.60914579448461      0.28170148936281      1.57516403647947
  H   1.26762453257983     -0.85889070223810      0.38375143666119
  H   0.37361929276299      0.56651403683896     -0.15009499270256
  H   3.07895864532614      0.58989889997636      1.28322697854249
  H   2.18669336124629      2.02951147634719      0.81225839604198
  H   2.44796011615480      1.19733495946568     -1.53255417551272
  H   4.94543606100371      0.99881918351692     -0.01094118165836
  H   6.67714473250600      1.39569287146489     -2.85009146450217
  H   6.74955823501388      1.62887241716255     -1.09374353354641
  H   6.01163890045198      3.98599025830449     -1.43071810229799
  H   6.05616470907784      3.73706829977993     -3.17775144299960
  H   8.10651163634168      2.18364576032987     -6.21178389563769
  H   11.77159889112292      2.95311856448043     -6.53811846623397
  H   9.51522239475494      1.77473276656949     -7.99669058001132
  H   11.04468789858171      2.34655145450806     -8.65200710154073
  H   9.81847269759434      3.51491834871359     -8.08805995814169
