28
Coordinates from ORCA-job 22600optt
  C   3.18943037206481     -1.21184038207557      0.41239096770134
  C   2.62991977251389      0.17945440603165      0.13329789911151
  C   3.04483454158174      0.70333270944249     -1.29477572376171
  C   4.47701473995458      1.03524287520966     -1.22087871240358
  N   5.59794107856768      1.26601879677292     -1.12580904899859
  C   2.77747421288270     -0.19282876433458     -2.46547191008695
  C   1.59263288131100     -0.07030923522994     -3.22492493177580
  F   0.82511289006971      1.05318422176947     -3.04391884330301
  C   1.17333879933054     -0.94871311748380     -4.23477833360225
  N   0.17658131311995     -0.86703917495597     -5.07186829684590
  N   1.97349200666661     -2.12630563148367     -4.34476393040656
  C   3.22061186398401     -2.15117018623164     -3.74712475276488
  F   3.96916679435617     -3.19433022273529     -4.16405385076304
  C   3.63703623150317     -1.28385739221180     -2.81118418539699
  C   1.12638273264779      0.23471563612878      0.33619751146842
  N   0.39573158412556     -0.66095521068048     -0.39500951095080
  N   0.53969686674613      1.01064203437544      1.16706237800671
  H   4.27814101918207     -1.20395463938106      0.32624140261108
  H   2.79802848854133     -1.93885236818758     -0.29749770618039
  H   2.92063314435747     -1.53089886720342      1.42032015482678
  H   3.05550983364463      0.88297754412727      0.85393935266131
  H   2.51688055138979      1.64907990911538     -1.44870162922869
  H   -0.32168727826244      0.00192841707262     -4.90511649642387
  H   1.89756667405576     -2.55322790334147     -5.25799976755876
  H   4.60092573266940     -1.42614357294615     -2.34168815909075
  H   0.77769673708001     -0.94922722909885     -1.28902119668107
  H   -0.59469471253486     -0.47157543897765     -0.40198477887739
  H   1.22360112845073      1.56965278651327      1.66712209871392
