33
Coordinates from ORCA-job 22610optt
  C   5.37248368165512      1.48612120667321     -1.80053151631996
  C   4.30712646494633      0.66705984074549     -1.07128916040655
  N   3.00880456019583      0.58435234754454     -1.73448873496982
  C   2.38954484319213      1.88847643052958     -1.96281216775908
  C   0.87407801453653      1.80095230917029     -1.95337206698733
  O   0.39007794990019      3.08447508491313     -2.19809592670668
  C   -0.98905393539055      3.25123756389890     -2.21837749763896
  C   -1.88757903886593      2.22742831725746     -2.05359467335374
  N   -3.25570930616890      2.38399766875597     -2.07304093339131
  C   -3.67501530267457      3.67770231454546     -2.26758462791151
  C   -2.81931576179542      4.72338469562124     -2.43154448980010
  F   -3.33157002281518      5.98074219101372     -2.61153071814786
  C   -1.41720234667662      4.59064894246080     -2.41990840705321
  C   3.04511123608238     -0.25851188887049     -2.91306483577722
  C   3.04058193295174     -1.74784188749534     -2.58818843849696
  N   2.48921559754310     -2.05274699288104     -1.39237826820186
  O   3.47570155575403     -2.57560419567193     -3.36404535910294
  H   6.30010506637326      1.48570044582464     -1.22605365027824
  H   5.05342092478280      2.52154469272055     -1.92489588081885
  H   5.59378583506506      1.07763980061674     -2.78701785932026
  H   4.14260764773225      1.09628569109168     -0.07978285898848
  H   4.66778591749212     -0.35407423336998     -0.91908171355802
  H   2.72305145572647      2.34831074190495     -2.90327593552405
  H   2.69332765356053      2.55786821832917     -1.15513214838251
  H   0.53284669256197      1.42767702279168     -0.97877990231255
  H   0.51244455891690      1.09699146592348     -2.71590795596125
  H   -1.54389815187881      1.21189680161977     -1.89259469055382
  H   -4.74447212674222      3.86307781515519     -2.28667782256576
  H   -0.73469409473704      5.41101913304392     -2.57146314556875
  H   3.90378941905557     -0.07647311506122     -3.56994080583419
  H   2.14842906108422     -0.07819704115229     -3.50916270663729
  H   2.12083950022005     -1.30298713941433     -0.82786952493189
  H   2.35035051841663     -3.01715424823500     -1.14751557673894
