31
Coordinates from ORCA-job 22611optt
  C   1.08572707312294      0.19335332552033      0.23903455993695
  C   2.54729428585790      0.10928157414546     -0.18461325473173
  C   3.12073215473255      1.50312047562692     -0.45897196227823
  O   2.30516455498294      2.37149616076821     -0.85820467453577
  C   4.50027151883824      1.76605213960686     -0.23237827322991
  C   5.01878593535830      3.10020604142435     -0.16626678175005
  N   4.19444757118130      4.19017357207429     -0.30161755026646
  C   6.36874719936994      3.38835442201925      0.16058374671863
  N   7.25249790411729      2.30363770604701      0.37579868153517
  C   6.75996680416089      1.02301850282658      0.22351726342053
  F   7.73849952703871      0.06570970839013      0.13854928197364
  C   5.50404756326601      0.72153047295934     -0.11277147400597
  O   5.20842816061127     -0.56053141402207     -0.51749133271336
  N   6.78803772076735      4.62897176723518      0.29480891656670
  C   8.16862408214362      4.84420952501329      0.62486733227063
  C   8.41290822223761      6.34554740216397      0.61714758622161
  O   7.46339861779444      6.99726748402424      1.43305362946647
  H   0.67481784632147     -0.80361115441377      0.41557717686151
  H   0.49376847258974      0.69355947880674     -0.52520357396079
  H   0.98551915228159      0.77534331150276      1.15723266910278
  H   2.63681736325937     -0.49541100233503     -1.09210175425731
  H   3.13391685128168     -0.40049256623894      0.57805846879579
  H   3.30767979735660      3.99643612302079     -0.74790030537332
  H   4.67638684657503      5.06015273213097     -0.45980646103989
  H   7.87916611242253      2.44236578100624      1.16042205185803
  H   6.01987320139910     -1.07489072461808     -0.44359969194618
  H   8.86223877204446      4.35268584565487     -0.07572918042130
  H   8.41963062092752      4.47078221383629      1.63597313093632
  H   8.34072555005610      6.70943248032858     -0.41572842785717
  H   9.40659463379448      6.58691667843106      1.00235549663341
  H   6.64728588410864      6.49233193706397      1.27940470606926
