28
Coordinates from ORCA-job 2261optt
  Br  3.06519138904678     -1.39791072518956      3.91830690912442
  C   3.43496981868113     -0.53702512600086      2.25287813520039
  C   3.43390666425340     -1.26592720133050      1.04153768650058
  C   2.90208593583441     -2.63746340229154      0.72798760619518
  C   1.45247696677400     -2.92349052258571      1.18780206912934
  C   0.42650635255254     -2.53695763406053      0.13932617015312
  C   0.52286272861359     -1.06853125495981     -0.30954552583537
  O   1.35985334351057     -1.12454158769687     -1.45987909857683
  C   1.78830041462804     -2.46423444642866     -1.58329860289647
  O   0.72594522313972     -3.23285626259576     -1.07454352588124
  C   3.08563163722297     -2.73779646722599     -0.81921889534560
  C   4.14250217834770     -1.68144023952864     -1.19667127785607
  C   4.07220192457800     -0.69440424268631     -0.06285974896783
  C   4.56811733190927      0.56803361840013      0.00268782351145
  O   4.42667343493157      1.32867785057378      1.14498360223661
  C   3.97970070277302      0.76549649881920      2.35117081685497
  O   4.09646558429707      1.47234390724448      3.33689988943481
  H   3.53447223268844     -3.39822388269099      1.20866737396902
  H   1.25192480292445     -2.39659130511050      2.12087702999588
  H   1.33132375209467     -3.99215235619686      1.38397638325917
  H   -0.58253551628143     -2.81581856289306      0.44130242950909
  H   0.97106372647409     -0.42957285728409      0.45325561192134
  H   -0.44907279846354     -0.67337668793394     -0.61287209370071
  H   1.90619315278858     -2.68532059543272     -2.64611680869800
  H   3.39632037432692     -3.74636131386949     -1.10499211604210
  H   3.93303784177342     -1.23153783769355     -2.17214874755389
  H   5.13769084754579     -2.13327537487099     -1.24945531761400
  H   5.06618995303477      1.10125801151937     -0.79305777802724
