33
Coordinates from ORCA-job 22617optt
  C   6.18096357701603     -0.20550588431001     -2.40568264110056
  C   5.63384746209360     -0.05171525434985     -1.00509693621840
  O   4.50337427195614      0.82742255446774     -1.07332464652871
  C   4.23868697753620      1.58782618366742      0.03324009160752
  N   3.80447015493058      1.13419847861853      1.14597104069160
  C   3.58783582752207     -0.28439713171312      1.30542619196708
  C   4.63462360695159      3.04917547952361     -0.09029582633726
  C   4.13442442210693      3.67847125423402     -1.37963401889472
  O   4.08283225462662      3.75088204607005      1.01401916114933
  C   6.14373404917679      2.99121700181730     -0.01531454208305
  N   6.83844149556692      2.86817014162696     -1.20544790734678
  C   8.07158283788027      2.50552924254838     -1.12216141585610
  F   8.73040557233127      2.40399677458977     -2.31313502405334
  C   8.81201215728066      2.19223246230648      0.01483427133449
  C   8.10715517079707      2.34706369892841      1.24409891550368
  N   8.79964459951426      2.05924689712705      2.44289827867704
  C   6.79702791259910      2.74086352536015      1.22512215917943
  H   7.04022785814760     -0.87871202264216     -2.39964723634121
  H   6.49649129730153      0.76838108837025     -2.77801583347518
  H   5.41782438426586     -0.61627613285651     -3.06947509562454
  H   6.38756325927650      0.37389543631853     -0.33701381346407
  H   5.31638916497767     -1.01848457676857     -0.60066681133066
  H   2.83077635957901     -0.44558873247983      2.07474660120379
  H   4.50149026414710     -0.79325321741210      1.63506499601445
  H   3.25205480274257     -0.76597844043318      0.38031025793740
  H   3.04309852654357      3.67898277248438     -1.37736792025436
  H   4.51066230957787      3.13727716638258     -2.24361375661804
  H   4.49679020364755      4.70654199748607     -1.42426918905993
  H   3.77553465561885      3.05869207899459      1.62079231888685
  H   9.83419678440008      1.85028536894817     -0.04240043335103
  H   9.74930094420193      2.41255074382533      2.41556123291197
  H   8.32185695908112      2.43645334255681      3.25004391696773
  H   6.24767987660488      2.87455565671268      2.14943361390558
