31
Coordinates from ORCA-job 22614optt
  C   1.25564587024099      1.09935714372791     -0.61773748782962
  C   2.18735400482234      0.14813075006320      0.10418639047042
  O   3.17818964331361     -0.30813631405761     -0.81777068498509
  C   2.84857261709844      0.83630457420305      1.30757899989465
  O   3.97422542980135      0.03539926176921      1.74652300016341
  C   3.71258471309339     -1.27463421659902      2.19816152009411
  C   2.85801863384215     -1.38427100020864      3.46138503156723
  O   3.39782996498214     -0.60247209397223      4.50384809914472
  C   1.36365725437937     -1.10867580100682      3.24712089384653
  C   1.04559789460915      0.35128095861780      3.09684136251035
  C   0.01191010486886      0.93230495856312      3.76772687003198
  F   -0.78425967552825      0.15794918410271      4.55393742311847
  N   -0.32574029552449      2.22664436676652      3.78145728746987
  C   0.49902341618454      2.98122472303143      3.01567831759548
  N   0.13682907553572      4.33322746379700      2.94543132768321
  N   1.54647325151558      2.61079311284665      2.33472507749419
  C   1.89183570602157      1.26172190335907      2.37186990857981
  H   0.83763460405185      0.61204540907547     -1.49984236740439
  H   1.80602009580964      1.98709265736935     -0.93440901746244
  H   0.44782324425055      1.41540314972413      0.04247312304173
  H   1.60566477807926     -0.71393951635049      0.45349295873962
  H   3.98672708116912     -0.41132259918599     -0.30029428466250
  H   3.32074821893300      1.74787285103350      0.93536970135501
  H   4.69729174306387     -1.69113422828517      2.42123668135903
  H   3.25594454360519     -1.88544554389250      1.40603384645891
  H   2.95581368271994     -2.42527046833346      3.78896479251858
  H   3.27246169156160      0.32176353649333      4.23496719096424
  H   0.81958203431974     -1.49626635132521      4.10869987915233
  H   1.03776739032891     -1.69610108509660      2.37904052821888
  H   -0.36255825236978      4.63163892113916      3.76970965783205
  H   0.92233153522060      4.92051429263112      2.71059397303921
