34
Coordinates from ORCA-job 22621optt
  C   1.12106792275759      2.44545838469410     -0.68693832349890
  C   2.64051153364582      2.32560151051605     -0.71662069709455
  C   3.08838112212353      0.92071621772572     -1.10259948093875
  C   4.60685578316515      0.75760706329132     -1.28974736446127
  C   5.34450523873739      0.98461225582820      0.02294196078983
  O   4.85244929802654     -0.61460029194678     -1.69032499319058
  C   5.10772949565145      1.68661537855563     -2.38625959812545
  C   4.81456895655168      1.47453253201923     -3.71906196036267
  N   4.07130454866184      0.36118789154929     -4.18404775389540
  C   5.23232746057080      2.42513225442390     -4.68718277668493
  C   5.83308700991128      3.58042553329058     -4.18107492992927
  F   6.18164873454358      4.55062887994738     -5.07296150395018
  C   6.10348012300307      3.75080890632652     -2.85106878017849
  C   6.69471929202623      5.00880257767587     -2.29465362517179
  C   5.58338409276441      5.88054558584470     -1.77199020990078
  O   5.60920111879913      7.09206576070681     -1.73289343884916
  N   5.78021298639182      2.79844048259831     -1.93022738929038
  H   0.80285470612023      3.44924449865411     -0.40061563828086
  H   0.68448436390978      1.73883274179728      0.02419451845379
  H   0.69985600198343      2.22720409818810     -1.67060102467784
  H   3.04864554585441      2.59393852938831      0.26107832876319
  H   3.06095154245650      3.03478711374217     -1.43374422323293
  H   2.60887212160036      0.63767101871655     -2.04372088626437
  H   2.74816249307694      0.20936165609250     -0.33408918840545
  H   4.95410548518597      0.29349576128831      0.77899668277983
  H   5.23036834617989      2.00873113789110      0.36768050235427
  H   6.40811676011325      0.80145825630051     -0.12233198136879
  H   4.47939494263943     -1.17770496688683     -1.00388572003228
  H   4.21511948227525     -0.45031784464063     -3.59836507098844
  H   4.31663496482616      0.14968312590626     -5.14196781291494
  H   4.99345874523530      2.32601292676411     -5.73636120024969
  H   7.27050940918633      5.58001219436738     -3.02285099311742
  H   7.35177702374838      4.73817291460584     -1.45668364259006
  H   4.69425334827689      5.31883591477799     -1.42802178549522
