32
Coordinates from ORCA-job 22626optt
  C   6.47800116205531     -1.10642283602108     -2.95699482130774
  C   5.15205457831925     -1.20100708789827     -3.72286449475645
  C   3.96897859972360     -1.31248303149582     -2.80452828257061
  C   3.38989698482384     -0.20480408467312     -2.12672882246489
  C   3.79208433995352      1.22111117662417     -2.46079872551803
  C   2.89157622918450      1.78915858148751     -3.55707980264384
  N   3.79471113560146      2.16477513385852     -1.33903993070094
  C   4.69785537621810      1.76494211671811     -0.26705594280812
  C   4.29343574757330      2.36658649951597      1.06333713262025
  N   3.06168988502174      1.98092624395919      1.47718585497620
  N   5.01683153554281      3.14489838258261      1.78044213053810
  C   2.33895528921780     -0.43907883967861     -1.22594383720054
  O   1.70574015505773      0.39644602567011     -0.56021795351854
  O   1.92827891968897     -1.74234034606745     -0.99849697599861
  N   2.45102275816248     -2.84295322650394     -1.68630900104211
  C   3.41430776076143     -2.54967397842369     -2.50469066283786
  F   3.90550452772375     -3.64418806559178     -3.13284756867737
  H   7.32783230051008     -0.99725335823622     -3.63569761506825
  H   6.62652818469437     -2.00674455111447     -2.35898028844258
  H   6.47127207130730     -0.25534799123272     -2.27303929522040
  H   5.18235811840737     -2.07344114150899     -4.37655574344161
  H   5.04706215196154     -0.32717485693619     -4.37297782884629
  H   4.81804202332209      1.20238844792289     -2.84312030312690
  H   1.86439783742424      1.84033171924226     -3.18930863531615
  H   2.90420695185346      1.13930196618292     -4.43377730297127
  H   3.21565123323099      2.79224491260711     -3.84122160862603
  H   2.84854017079800      2.17497011725399     -0.97257921752753
  H   5.71491735312633      2.08668522043606     -0.50533623702392
  H   4.71219804537319      0.67101415329713     -0.13914502940678
  H   2.48959542422502      1.34934010782858      0.92188769459729
  H   2.71372884572109      2.36234079439757      2.33814684604405
  H   5.88874430341522      3.33645179579765      1.29833626828753
