28
Coordinates from ORCA-job 22635optt
  C   3.53400300547312      0.25772175929474      1.05620640066601
  C   2.43286153018404      0.08510524500530      0.00169983367189
  C   2.85638555830580     -0.72045415073483     -1.19536523722877
  C   2.75991893826415     -2.09404289282230     -1.24712180626926
  N   2.31590426315557     -2.81693220498431     -0.11873802286995
  C   1.98698417659339     -4.14415919478053     -0.09820059007260
  N   1.43965187804340     -4.78092374368186      0.86267574546214
  O   2.29184168110455     -4.84043325265556     -1.20569993618988
  C   3.01039968279666     -4.27217549047908     -2.24835929356014
  F   2.74498525963650     -5.02857745896589     -3.33828498773305
  C   3.09099131628954     -2.86304929840691     -2.38414883063800
  C   3.61399664779007     -2.21076992077791     -3.55364231559915
  N   4.04299983998533     -2.72145349933007     -4.69051713068525
  C   3.72786921723058     -0.78130862387416     -3.45511410269799
  O   4.25944459565913     -0.16180582976476     -4.55225334746199
  C   3.38170038910625     -0.06608563605368     -2.34913385957482
  N   3.50191644884940      1.34741430070818     -2.37295606280676
  H   3.19330039626119      0.85354298501035      1.90748917492186
  H   4.40610079013445      0.75045222671890      0.62130644319001
  H   3.87354181131639     -0.71202621071575      1.42599853778272
  H   2.10418385046946      1.06974115583563     -0.33870452918868
  H   1.55017312066370     -0.35994778548217      0.47473331654194
  H   2.07491432064046     -2.29860323742811      0.70679541608026
  H   1.22552346156236     -4.14569907606958      1.62498937517478
  H   3.96781530935251     -3.72973898034507     -4.70821551862051
  H   4.43625280370849     -0.92657279906675     -5.14656910341682
  H   4.02801267717528      1.62905841795336     -3.19094101324594
  H   3.95232703024817      1.70872319589286     -1.54192855563202
