30
Coordinates from ORCA-job 22639optt
  C   1.06014964213809      0.19620235992280      1.03147490883905
  C   2.09140858804496     -0.46723579649258      0.13077753818251
  C   3.15752323029382      0.51132547772609     -0.40690004226401
  O   2.68866430859328      1.83591269170926     -0.39953229113303
  C   4.40057245666379      0.28629092672906      0.46888092193153
  C   4.40688026453141     -1.23309585442648      0.59047590730123
  C   2.92756124072574     -1.53325894898976      0.90784856460765
  C   2.51968619503191     -2.90264851167574      0.61090943962216
  N   2.18914180038938     -3.97319633500900      0.36184123979102
  C   5.61964747103029      0.97737267940969     -0.06924650904804
  C   6.48622373192664      0.35687782042050     -0.92838994701811
  N   7.50692087120617      1.09172850385419     -1.53768999190004
  C   7.78650012526106      2.45495268577204     -1.27414564746196
  O   8.75949624471089      2.97903799167401     -1.84092844817352
  C   6.87844729425654      3.03357344984216     -0.37656933280814
  F   7.03568360442451      4.35561273068463     -0.08478834285419
  C   5.79388194409375      2.34956609372782      0.21550582354760
  H   0.48297580691869      0.93371331448027      0.47647167288133
  H   1.54918528689193      0.71746791802074      1.85647983504150
  H   0.37986513258825     -0.55224376229854      1.44427221372201
  H   1.57508531757607     -0.94724455645117     -0.70150129165310
  H   3.43134947071534      0.21915638104248     -1.42905911803866
  H   3.47340274400315      2.40112230695562     -0.50643512703678
  H   4.16900106898589      0.70873719697063      1.45624023562074
  H   5.08331249474645     -1.61103183092147      1.35530579005632
  H   4.67996316006554     -1.69036937944905     -0.36281704459597
  H   2.76600312748187     -1.38162391757459      1.97849118953565
  H   6.40450899896389     -0.67812323727567     -1.22611338213824
  H   8.23780200049095      0.62613199118965     -2.04801164245797
  H   5.20715637724913      2.84028961043229      0.98315287790147
