30
Coordinates from ORCA-job 22637optt
  C   3.42661522153207      1.21193207880095      0.44048901693046
  C   2.45724971560870      0.07238078627396      0.11620473867714
  C   1.14702524775547      0.62793100418796     -0.23156460647996
  N   0.12779009561285      1.07512831414256     -0.51663345996342
  C   2.98802101001415     -0.87408628748012     -1.00498124025025
  C   1.93483326466941     -1.91023601579887     -1.41452191737158
  C   1.68101211669206     -2.92056397525192     -0.28370525100411
  C   2.97977317836112     -3.64845086558140      0.08602122110302
  C   4.12412760008163     -2.70050532807185      0.30477379439872
  C   5.34833331766437     -3.24724410125293      0.83410150739319
  C   6.53420648664731     -2.63209782765841      0.57465517676759
  F   7.66464994657805     -3.14772843845348      1.13750608064376
  C   6.67771226671169     -1.48875769165712     -0.22303692447872
  C   5.48137428212028     -0.97993118579584     -0.78675210312421
  C   4.25501935647009     -1.54796191218684     -0.53699467113416
  C   0.64821728597867     -3.88029356716639     -0.68138209941942
  N   -0.15916629231896     -4.63595031586782     -0.99055695766369
  H   2.99744965605277      1.88576103287352      1.18225975228349
  H   3.65457967722904      1.78590337621731     -0.45946171677543
  H   4.35351596465006      0.79249181811308      0.82721265048315
  H   2.32772069445085     -0.53217618643005      1.01901542376333
  H   3.20715053070850     -0.24317933027114     -1.87221560671389
  H   2.31290659876886     -2.46015086073946     -2.28001133560284
  H   0.99878125164577     -1.43009816188120     -1.70754990000688
  H   1.29929563340681     -2.39578805319162      0.59738492601215
  H   3.20153894321842     -4.34504552720760     -0.74797126431468
  H   2.81045358119270     -4.27549462043205      0.96503447315123
  H   5.33989423452016     -4.12670079733845      1.46825896187466
  H   7.65357748338385     -1.08010170317613     -0.43758625149521
  H   5.52434165059318     -0.07898565771864     -1.39399241768344
