27
Coordinates from ORCA-job 22630optt
  C   1.02215995385892     -0.23887356214887     -0.76310290062209
  C   2.43708612023498      0.04446305993571     -0.26680561168871
  O   3.33501786409674     -0.87364793426513     -0.83901318627869
  C   2.84891536699297      1.47474034458315     -0.59234462206686
  C   2.23669068596284      2.54823888851389      0.04845709345870
  C   2.66384488425692      3.84097812855796     -0.33376116878116
  O   2.12973181436471      4.96919041874499      0.23106925251176
  C   3.63087687210500      3.96499894749849     -1.28411913822686
  F   4.03665890913923      5.20401540014020     -1.64385154790313
  C   4.22494813436036      2.83048068494636     -1.90665823839671
  N   3.78297249568641      1.58683302954650     -1.50938508015262
  C   5.22501928301136      2.90537176160207     -2.89365787929352
  C   5.87054633620439      4.00007466677142     -3.49248022900648
  C   6.82290781189317      3.60368981408574     -4.44620378859083
  O   7.58726222997036      4.49522616019824     -5.16627962380641
  C   6.94449357589245      2.25420829314778     -4.61545190010208
  S   5.84922381537787      1.41129204519692     -3.56571290635392
  H   0.75888879905579     -1.27720080711494     -0.55496076713899
  H   0.98137458151153     -0.07547052135629     -1.84140602672198
  H   0.29731322562958      0.41980996683272     -0.28171050386348
  H   2.46136697467909     -0.07653375396060      0.82358625105708
  H   3.91386642700158     -0.32472531941924     -1.40418347360188
  H   1.48473044661499      2.40846708528298      0.81596870560741
  H   1.45157171953882      4.68818928707012      0.85092242123570
  H   5.65893595572914      5.02986614734023     -3.24744261710885
  H   7.32967321367244      5.37961342500828     -4.89278441164264
  H   7.60592250315828      1.73470434326130     -5.28668810252275
