31
Coordinates from ORCA-job 22641optt
  C   0.93585567208118     -0.04170943763044     -0.01775066201349
  C   2.42555350665362      0.02517223086946      0.12907322964616
  C   3.11726495965592      1.26812551892458     -0.07372206936463
  O   2.40521480725645      2.45125252569375      0.18649860127834
  C   4.53366366447740      1.25674541130302      0.09821889157495
  C   5.16726777132765      0.05312708057405      0.28414463414843
  N   4.53392968205772     -1.14946031345080      0.38244034149485
  C   3.21630910163861     -1.07626962200941      0.32183417254041
  F   2.59788286775412     -2.28835449001104      0.43281370471998
  C   5.27399819824331      2.59921214104338      0.01990775125314
  N   4.87828982859886      3.40823291181289     -1.14691242987896
  C   4.95548944633238      3.35836761540639      1.24760371729103
  C   4.69522336164498      3.94442478487679      2.26244320430791
  C   6.80817441510550      2.43643213884339     -0.04228717713663
  O   7.14016337021796      1.81023114374653     -1.26371587103290
  C   7.55275172750554      3.76463867117875      0.05217644842791
  N   8.98510771852388      3.50108854836528     -0.15368665230521
  H   0.43500559135261      0.63566243571907      0.67638726536143
  H   0.56995482230689     -1.05244955329806      0.15561801646542
  H   0.63869473287327      0.27406044450295     -1.02611100462095
  H   2.45544639192617      2.65034494357427      1.14328146742970
  H   6.24838851649868     -0.00570483141970      0.30471154440024
  H   3.86288599237639      3.45903543679600     -1.12953011786775
  H   5.12143623533773      2.84807565849401     -1.95959492867060
  H   4.45633768631712      4.45154757131468      3.16488618823680
  H   7.11268043700121      1.80772501668710      0.80572404323990
  H   8.05975051638962      2.05407861232553     -1.43763597572163
  H   7.33364526956937      4.24461947195491      1.00809224103322
  H   7.20010953811691      4.41214647580471     -0.75041971002731
  H   9.38305258235003      3.05463609280411      0.66513712695012
  H   9.49547158850872      4.36096536520378     -0.30462599115989
