30
Coordinates from ORCA-job 22647optt
  C   0.76507490437599      0.19046016333715      0.19543691712966
  C   2.25312449276967      0.05853461612488     -0.13459725818627
  C   2.87324280335369      1.30925927432560     -0.70975456774377
  C   3.81936441629374      1.35627668965631     -1.69519434887732
  C   4.39591090261715      0.11567398817513     -2.24174753701865
  N   4.65660158819258     -0.97777343080365     -1.64481199718709
  S   4.74572102672733      0.18401542306196     -4.01127471814141
  C   5.65611586877291      1.68378934771932     -4.01847924485531
  N   6.96162143768054      1.64715155760619     -4.59641250628774
  C   5.25503096644667      2.68522751818637     -3.18888306584085
  F   6.02693898220412      3.83266959378740     -3.25303978835427
  C   4.21974138189359      2.65795907620626     -2.22889097812849
  C   3.56255337113508      3.83208772103520     -1.76970333433105
  C   3.74746482357876      5.15778896445255     -2.44625523489328
  C   2.66574971315099      3.76843170877780     -0.68134039124475
  N   2.00371318058290      4.70860650254285     -0.05789836192905
  N   2.40129805178365      2.47679272762093     -0.18720546437716
  H   0.35437329615208     -0.78911775647803      0.44347041416052
  H   0.21399088495002      0.58890227225768     -0.65728116142900
  H   0.57757124198548      0.84112131495499      1.05069838944768
  H   2.38206779927872     -0.75022504340859     -0.85138513578420
  H   2.79120517153212     -0.24052914937483      0.77371137846401
  H   4.46918082412237     -0.88357733155042     -0.64700409483755
  H   6.92255552960657      1.40031129784092     -5.57764759373424
  H   7.38221825456780      2.56626420288542     -4.52063685085189
  H   4.00989544807430      5.02331561367917     -3.49545658849550
  H   4.53479616411497      5.77415281258513     -1.99579383820012
  H   2.81781857328015      5.73265489500647     -2.40827486570247
  H   2.26001264698855      5.61492477460823     -0.43141289288775
  H   1.67704625378740      2.46985065518154      0.51106472011733
