25
Coordinates from ORCA-job 22657optt
  C   1.07018362661761     -0.38251182916268      0.75751891774691
  C   2.42327941125386     -0.01595078598950      0.29682579509378
  C   3.03285512171585      1.15145965360043      0.03209477964122
  N   4.35266575406381      0.80121532988890     -0.30761681097618
  C   4.52186648650259     -0.54635565164263     -0.28770558492237
  O   5.50248480022786     -1.20506569157988     -0.54755773381572
  O   3.32809959813103     -1.06494385973452      0.09853898239938
  C   2.59191990685750      2.53563546521201      0.04691855201591
  C   3.49847623910361      3.53744840639158      0.39530990118882
  C   3.15587226679174      4.89468653414650      0.47323415038823
  C   1.82701361734535      5.21372149235066      0.12028377658942
  N   1.19017217394945      6.40494923182744      0.01570672982685
  N   -0.10623988023353      6.30061001156561     -0.38147433919908
  C   -0.29377936252123      4.98787494774251     -0.51845397119467
  C   0.86513765097432      4.24636239300927     -0.22393904028421
  C   1.22672702495988      2.86529679943404     -0.18204121289918
  F   0.46774984959580      2.01379127243105     -0.96979303465611
  H   0.52192816608273      0.52567591735227      0.99921164766301
  H   1.12509685247181     -1.01681606594136      1.64585461204008
  H   0.51615030373689     -0.92345388105810     -0.01476134367767
  H   5.03935058889499      1.43740545085348     -0.67165986828025
  H   4.50157804833087      3.24140789081136      0.68571473262814
  H   3.87819741493624      5.65044351383365      0.74719561217645
  H   1.58296103773919      7.31574069954133      0.16279814449041
  H   -1.25574669752827      4.61737275511652     -0.83620339398319
