29
Coordinates from ORCA-job 22667optt
  C   1.22384600336667      1.28013298694112      0.09818457123886
  C   1.85662480202266     -0.08657282687122      0.33044355270041
  C   2.01055837882182     -0.53991915459504      1.80179496321526
  C   2.46964074847496     -2.05709104097049      1.79842723506847
  C   1.29298078577056     -2.96952252823417      1.44290125254000
  O   1.01370111873333     -3.14544358815070      0.22672119638460
  C   0.47119098271675     -3.25768463977754      2.55543545048536
  C   -0.91600178441027     -3.37267415238493      2.56597571245023
  C   -1.60822589155890     -2.65384742680823      3.68297941426085
  C   -1.64170333577677     -1.08983157636391      3.47134768882707
  C   -0.35365667441422     -0.58038298933220      2.99788152233315
  C   0.73772584705747     -0.40234895049335      2.52467251096504
  C   3.08343165458364      0.27737470977229      2.51005209474795
  F   4.27745725558803      0.16092024421508      1.90061210562581
  F   2.81270144482645      1.59560160143134      2.54863714190734
  F   3.27015137101368     -0.09723767291181      3.78510949914536
  H   1.01513522632269      1.41134218274708     -0.96512221949347
  H   1.86719788496011      2.09911664196129      0.41842494118440
  H   0.28070529843337      1.35854594027983      0.64067725238244
  H   2.84387090085774     -0.13632692978601     -0.13576434120553
  H   1.25403916083106     -0.86741081180872     -0.13659131658239
  H   2.86847659803985     -2.30015382709246      2.78345203153795
  H   3.26441821991798     -2.14567168531075      1.05451972845794
  H   0.92566553959157     -3.03809150888477      3.51944470212074
  H   -1.43524529937467     -3.44691483182005      1.61451003841031
  H   -1.07956929579605     -2.83634902567363      4.62394981508981
  H   -2.64778758951828     -2.96483834892260      3.82820711605296
  H   -2.39873048228652     -0.85947804839828      2.71735173262703
  H   -1.94559886879473     -0.58924274275715      4.39676460752198
