26
Coordinates from ORCA-job 22665optt
  C   0.89748218597465     -0.25528889567974     -0.76266061625123
  C   2.23248144994041     -0.15834506397517     -0.02886302985950
  C   2.93828611093203      1.17372221708025     -0.27731752854021
  C   3.50487458306594      1.30757238668265     -1.67670176856021
  O   3.71403538918164      2.39042434044393     -2.20679757557238
  N   3.78177830796695      0.13573630516286     -2.30251342399545
  C   3.56367220780301     -1.13672353628905     -1.77496955284872
  C   3.60722005823475     -2.36187174626517     -2.36820059169356
  C   3.16255911333690     -3.30311702450748     -1.39980086027031
  C   2.85925936820867     -2.59384758603474     -0.20668411130790
  N   3.16199119226878     -1.21700087381694     -0.43935837347076
  C   2.50280947856867     -3.12668772470166      1.03028668495152
  N   2.39967912310440     -2.62742485834736      2.23182963490322
  S   2.03959363600847     -4.88747964727565      0.98980410743804
  C   2.67152363155035     -5.34850680870866     -0.58144007497886
  F   2.64470005940308     -6.69747180258591     -0.72109820296038
  N   3.11791856601705     -4.65817271206528     -1.54184206846781
  H   0.19498596809726      0.48759698020381     -0.38052825717391
  H   0.47431005222160     -1.25006289286613     -0.61810395858177
  H   1.03076585927082     -0.08894982440126     -1.83435537661857
  H   2.04729703497757     -0.27246093387722      1.03793207194687
  H   3.77430818671298      1.28332812831416      0.41810688651357
  H   2.26488638308268      2.01699914854840     -0.12334315720334
  H   4.13256010624791      0.21121140652205     -3.24501680180073
  H   3.93743349828854     -2.58511029467536     -3.37056947794759
  H   2.76458844953468     -1.67806868688520      2.23620542235002
