28
Coordinates from ORCA-job 22675optt
  C   0.81688555599437      0.17905387935972     -0.10051903543180
  C   2.29375710928362      0.31459447550274      0.22818968845013
  C   2.47402550238194      0.35948181757676      1.75044505099769
  O   2.31522099405817      1.66750764788334      2.25750206960280
  N   3.17749265782024     -0.31671042502197     -0.74598048863358
  C   4.41054928536329     -1.10252719228776     -0.58157670353003
  C   5.31880523555816     -0.95243625896885      0.60880764094814
  C   5.60866729614849      0.19884963133837      1.31987902605700
  C   5.06687867742478      1.48491024028412      1.14328116509390
  O   5.04936771503698      2.37785030606853      2.05835709529548
  C   4.43474693800716      1.86416437545495     -0.19239871570601
  C   3.19791538081479      1.11390302418727     -0.66892227794407
  C   2.56797490817285      1.83650815998669     -1.85789586053025
  F   1.94774703926466      1.03476184584984     -2.73179418104183
  F   1.66403778531976      2.74815403994954     -1.45045025829513
  F   3.47138545913838      2.51973450699207     -2.58962186366852
  H   0.45944434806801     -0.78018974713573      0.28259954227093
  H   0.61265029394838      0.21362314953101     -1.16590464634679
  H   0.26244474768051      0.97509443239636      0.40098500517211
  H   3.41174687257894     -0.08515149829032      2.06259599695699
  H   1.66481894983743     -0.24108442972355      2.17805208442310
  H   3.19821645601929      2.08936516199009      2.27951665009664
  H   4.94536766142828     -0.90749963475741     -1.52382950729591
  H   4.10239957906773     -2.14972129509037     -0.64195777670749
  H   5.79930710243357     -1.87475777117861      0.91683312517064
  H   6.18851020108087      0.08612091925917      2.23279683690114
  H   5.18481782342149      1.75869116866532     -0.98438270797545
  H   4.19181842464776      2.92570947017865     -0.12160695432987
