27
Coordinates from ORCA-job 22677optt
  C   1.10552147618862     -0.08036663312110     -0.10439335672444
  C   2.57804921068497      0.04346168404819      0.03599968053144
  C   3.38402583440504      1.12264004283592      0.13303673366127
  C   3.34906457590049      2.62596998769190      0.26184660423509
  C   4.83116461261145      2.93430049354799      0.30741122416439
  C   5.60249999300314      1.72717839390449      0.44770487870514
  N   4.69719245124194      0.66635881594119      0.23606988305310
  C   4.75446907321661     -0.68671682858964      0.19994910889389
  O   5.75243254821913     -1.41809102821278      0.27784250944618
  N   3.43062553802001     -1.06789608132134      0.07431191393321
  C   6.98919722099262      1.77215084932511      0.21453375997386
  O   7.74435395444622      0.63094561283191      0.17898735706240
  C   7.57567436074451      3.00812299366095      0.05646669193409
  C   9.05658164641840      3.16024784301510     -0.09296153876012
  N   6.84913901258680      4.19444673149065      0.05266870877899
  C   5.54823811906828      4.08415600214268      0.13386385417557
  F   4.85022836648927      5.25452504377075      0.03440199263901
  H   0.66326761196734      0.91468061226866     -0.13958277014181
  H   0.65418809484900     -0.61957204389261      0.73357357280482
  H   0.82552473185614     -0.60365611589836     -1.02411341250905
  H   2.81258820272692      2.91936655169181      1.17660470980279
  H   2.83737400875444      3.11018500942701     -0.57398844526754
  H   3.16323104654329     -2.03044271383388     -0.02114602353336
  H   7.16242923173108     -0.14785121118577      0.27270828178453
  H   9.55848241730608      2.19584477450139     -0.03703006986769
  H   9.45333615563810      3.81649598307088      0.68939048100525
  H   9.30012050438997      3.63051523088881     -1.05115632978103
