33
Coordinates from ORCA-job 22680optt
  C   0.45804792371252     -1.05072807755362      0.06120227673671
  C   1.92603165678262     -0.80211295639872     -0.25154746341416
  N   2.71028380670569     -1.03106037951406      0.94351552219315
  C   3.99141443718125     -0.83963841695952      0.98873064653899
  C   4.64733290492191     -1.08364995004445      2.27246497109449
  N   3.81316544475979     -1.44168740583394      3.33731222607527
  C   5.98100918929590     -0.91099295809306      2.40121033425502
  N   6.76545394764113     -0.55970614229113      1.34524586494171
  C   6.26311820617283     -0.30397611622569      0.10605157642733
  C   7.30324566485906      0.10715903112367     -0.91055206293233
  C   6.79429942421771      0.29416043164243     -2.33372466901295
  C   8.11168803029979      1.37796329995097     -0.42501259283093
  O   8.81675141692861      1.00510275317598      0.77425288332153
  C   9.16671869763793      1.82384954271997     -1.39347855044094
  O   10.24584065062511      1.11067294657170     -1.40374620458959
  C   4.90822405857912     -0.43161689025679     -0.04775794392871
  F   4.36020069192521     -0.21120928523299     -1.26772521653475
  H   -0.16872100853210     -0.88361402940855     -0.81769704170943
  H   0.12729286120697     -0.38391873426069      0.85921807817539
  H   0.31416200453172     -2.07687121044833      0.40421837874482
  H   2.04543094103222      0.22234424932429     -0.62188321308656
  H   2.23664086371344     -1.46038874449547     -1.07136340440380
  H   2.89648003012317     -1.67328378948353      2.96630519770385
  H   4.18690973561022     -2.17366556116342      3.92168791951032
  H   6.48793247888949     -1.04239247348477      3.34758590038511
  H   7.72848057295968     -0.24396927236462      1.47761108047311
  H   8.05844767983822     -0.68631370767278     -0.92065705089549
  H   6.14114986653904      1.16538988204597     -2.41177459377859
  H   6.24046895272869     -0.57647929765217     -2.68252683592585
  H   7.65434440639252      0.45537889115380     -2.98079812723619
  H   7.39296139732406      2.17140733141027     -0.19333889894338
  H   9.71156623100053      0.85081324366255      0.39778315784707
  H   8.87062683439543      2.44803379605673     -2.24381214476021
