25
Coordinates from ORCA-job 2268optt
  Br  1.13250446887216      0.46599862233633      0.42803645640195
  C   2.99990979435363      0.23539422413419      0.20156359902880
  C   3.77307148223178      1.23852421706944     -0.42248589595799
  C   3.39420443744045      2.63997367118071     -0.79724734321757
  C   4.55553184586517      3.04374103982208     -1.71789682692041
  C   5.77037456482568      2.34952487277537     -1.05436303700773
  C   5.15291090122931      1.06832270750292     -0.56112269307148
  C   5.77332344785267     -0.07584456568051     -0.13596977155837
  N   4.95921156178190     -1.09490969161734      0.36553735929585
  C   3.57224885957793     -0.99196365753496      0.62019512006827
  O   3.01161017316370     -1.95102377591230      1.15676989909309
  C   6.17895192811170      3.25239582690128      0.08550908863889
  O   7.00708345039699      4.12172049790450     -0.00903119762527
  C   5.45687694917635      3.07998834443178      1.44542344240904
  O   6.10244333366672      2.83298837652251      2.42167209276905
  O   4.13878811761117      3.27141350687651      1.53758494167284
  C   3.26842084902356      3.56064614247852      0.43420724310796
  H   2.43133362892435      2.70778640843874     -1.31367911859555
  H   4.68831928566472      4.12411357499145     -1.81296346456038
  H   4.40623035472003      2.61873582707369     -2.71065586629204
  H   6.62385097740893      2.24864110181312     -1.72641278877107
  H   6.83568836880441     -0.26040334706943     -0.18132440113077
  H   5.36791886667147     -1.92334926395797      0.76346937742033
  H   3.40268656299794      4.60954705100364      0.14859382972738
  H   2.27850578962718      3.43703828851566      0.86858995507519
