32
Coordinates from ORCA-job 22685optt
  C   3.57577366417013      0.07229862963114     -0.99273181608779
  C   2.41302856028150      0.21591898305616     -0.01876243318074
  N   2.63814600833485     -0.48458596731172      1.21650473536237
  C   2.72027590963880      0.05026952932684      2.45544596000207
  N   2.89332020368392     -0.84497187353408      3.38579283069319
  C   2.92782633256749     -2.08244863028016      2.73704417786398
  C   2.76295522512278     -1.85664998392525      1.36859446762124
  C   3.09883534789703     -3.29348666432803      3.47386607219260
  C   3.21572580682233     -3.30135138330460      4.90695234878818
  C   3.32640015611909     -4.46489724136399      5.62753890507294
  C   3.43872990797955     -4.42454926644926      7.12828307290984
  C   3.33301686397904     -5.71591539061602      4.97509081249542
  C   3.23045422181735     -5.75316368092655      3.54925942223504
  C   3.30458903967635     -7.07739527485481      2.85766756060567
  O   4.52481916861186     -7.77089138180582      3.15582756319318
  C   3.13094953859275     -4.57168727740964      2.87090912164454
  F   3.06382929264732     -4.61118313851665      1.50406772436260
  H   3.37066436989214      0.61685087376030     -1.91618776493459
  H   3.74035361388108     -0.97655621066067     -1.23845589225144
  H   4.49160942506630      0.46223879187500     -0.54752547830657
  H   1.49363249787054     -0.16068142397358     -0.48135615235996
  H   2.25138991985134      1.26731668639527      0.22697305256317
  H   2.63827587623231      1.11746598544846      2.61016629719557
  H   2.74130058550861     -2.52165464567006      0.52590902872817
  H   3.21075032862325     -2.34547839651355      5.41581153905057
  H   3.39219449684150     -3.39983815622138      7.49856148726290
  H   4.38156068504449     -4.86914902182662      7.46291196160988
  H   2.63157395747839     -4.99620331147319      7.59724612018981
  H   3.33540139905568     -6.64148639905733      5.54195195611471
  H   3.24402561032944     -6.95929129431105      1.77645107910117
  H   2.47214253985411     -7.71505108918914      3.18469687885581
  H   4.91544944652858     -7.29879237596989      3.90049536140638
