27
Coordinates from ORCA-job 22688optt
  C   1.01514232774181      0.20492030092720     -0.12376351843803
  C   2.52101838412622     -0.00765089667711     -0.26580368979141
  O   3.07364543032191     -0.34064429212167      1.01706510295606
  C   2.85075621794192     -1.03076717440795     -1.31325795415141
  C   2.34693653790219     -2.35782287907597     -1.22898067827895
  F   2.15789085946263     -2.88472101260274      0.04975062760220
  C   2.75090948550535     -3.29416429325601     -2.22182080602042
  C   2.57937921713329     -4.65519099861227     -2.43596548958346
  C   3.19619479938658     -4.96435537059565     -3.66917846397791
  C   3.73124243124589     -3.80133337511224     -4.18304718955349
  C   4.50253980989545     -3.53451982171670     -5.43562482578724
  C   5.94828522612301     -3.74598530574449     -5.29998549875512
  C   7.12756262697173     -3.93489740826971     -5.19321556000472
  N   3.46708247201240     -2.79934367708116     -3.29391712311711
  N   3.85023512942979     -1.49214266889643     -3.49496015632011
  C   3.53257224885953     -0.72403861639295     -2.47796066154086
  F   3.89437645739672      0.56596013730665     -2.68037022920175
  H   0.81341626924918      0.93481815196110      0.66251299636748
  H   0.52808838726660     -0.73736234784044      0.13340257502310
  H   0.59390775620777      0.56169150743403     -1.06537159289718
  H   2.99021831614666      0.93595439280818     -0.54151102740793
  H   2.94445103745789     -1.28893786807143      1.13132347654450
  H   2.05409418458785     -5.32430767909979     -1.77564963762313
  H   3.26068662736155     -5.93292589163262     -4.14028326525742
  H   4.33062309368128     -2.49979621709668     -5.74018731083954
  H   4.13456908473456     -4.18614119341760     -6.23149728499396
  H   8.17117558185020     -4.09329550271555     -5.07270281495214
