27
Coordinates from ORCA-job 22698optt
  C   3.34647244218006     -0.58895333485501      1.15035359299632
  C   2.51143399131907     -0.10807331733002     -0.04241721710188
  C   3.28720482406257      0.08724558621882     -1.29639251464219
  C   3.50929022485246      1.22355236223450     -2.06900217620406
  C   3.42723552506834      2.57929882535244     -1.51241814021742
  N   3.36387972737902      2.91549799946077     -0.24148229941777
  C   3.45438197638602      3.61033419630613     -2.50989259966083
  F   3.28590493584242      4.88045592164050     -2.07229806958250
  C   3.71625208955742      3.41798821161125     -3.83307220623726
  C   3.94903489821882      2.11241034050197     -4.31592246048286
  C   3.84512865758054      1.05546010757490     -3.45109529227700
  N   4.04814458779916     -0.25616871530239     -3.95529680674584
  C   3.89729039785490     -1.20773666243937     -3.15312360561660
  O   4.07961611832418     -2.52379836645482     -3.50519239999721
  C   4.54254568890700     -2.80247120727088     -4.75201258733310
  N   4.67719163123492     -3.97881800080878     -5.17177033875716
  O   3.53973178134800     -1.19143639435426     -1.88049738482948
  H   2.71485673906416     -0.79732846657641      2.01740711299636
  H   4.08364507186627      0.16484011974013      1.43121822194171
  H   3.88400146724082     -1.50236693327260      0.89039691541000
  H   1.99685777124459      0.82089596047392      0.20064440219830
  H   1.73686177356601     -0.85914982435686     -0.24627576900428
  H   3.49271504892074      2.09155470601579      0.33508996671630
  H   3.76252973401838      4.27969822835378     -4.48629763982102
  H   4.18576977417191      1.92570860100773     -5.35413960279391
  H   4.78750791064146     -1.92728664097109     -5.34340044966079
  H   4.38451521135069     -4.64435330250012     -4.45511065187583
