30
Coordinates from ORCA-job 22696optt
  C   4.63621812692196      2.19629211466494      2.88308316461548
  C   4.06632702592235      0.87920006476383      2.42974297704723
  O   4.76428153198222     -0.07198560409654      2.16496820738457
  C   2.54482896204015      0.84463201860740      2.35258792697167
  N   2.04693821437815      1.90256151600351      1.50249473676902
  C   0.73828330810935      2.48092550753850      1.89738833018595
  C   0.79582487787735      3.21162130940022      3.21960899648275
  O   -0.26771630267797      3.26787605412033      3.93549336225772
  C   1.73608912708696      4.38953712624747      3.29743054415077
  N   1.17071681813511      5.62833031822716      2.71792380269813
  C   1.34256787696181      5.95507017268505      1.39711780991136
  N   0.60574071237892      7.09234532010761      1.02921413293981
  N   2.07346199404980      5.38900867468376      0.51258785920010
  C   2.04198201546983     -0.54470146076653      1.99531729232106
  F   2.43975546554725     -1.46636203831707      2.88328269737880
  F   0.70077341948488     -0.58834309939048      1.97012009570111
  F   2.45139250022171     -0.95328492465614      0.78326232008084
  H   5.68391175845604      2.06278589999471      3.14281196513304
  H   4.05878342517660      2.57633077559969      3.73056381119244
  H   4.53611901671485      2.93268846388204      2.08483686432777
  H   2.16099035083985      1.07833620603559      3.36117671368250
  H   2.06295614186291      1.62988327015610      0.52656878488430
  H   -0.05446580649030      1.73235994894196      1.97873151414992
  H   0.47399397790054      3.15687104217651      1.06895073169885
  H   2.68927777002097      4.20910015583078      2.80139423506655
  H   1.93184959013120      4.60814947531852      4.34956299297604
  H   0.24145065456269      5.81644595666153      3.07206047732448
  H   0.61895065624275      7.81843624127717      1.73043998097818
  H   0.89997280655714      7.42400607570856      0.12254354405763
  H   2.43174398413474      4.49988341859353      0.85173412843171
