27
Coordinates from ORCA-job 22697optt
  C   1.03671770554387     -0.17097474622674     -0.23540948034029
  C   2.51918878939082     -0.12593785319941     -0.06617530952274
  C   3.30845612585937      0.98579667110304      0.10400135345356
  C   4.66417255367084      0.60944996857231      0.20344072011291
  C   4.70758697634882     -0.77140295104220      0.08568110124170
  N   3.38594914791721     -1.22665215979182     -0.07156035478628
  C   3.16826921404213     -2.57467782852325     -0.20341875737759
  N   1.84074161487413     -2.99906679308280     -0.35805949855351
  N   4.10317024832342     -3.45334034402904     -0.23307400322193
  C   5.43278858618273     -3.07259358554359     -0.12919000254151
  C   5.76009670201476     -1.71525442501719      0.06345797060546
  N   7.05682912977879     -1.29140945132553      0.21534054854369
  C   7.92550231661476     -2.28430426846964      0.14386383484834
  F   9.22584811734490     -1.90402431327568      0.29268405521276
  C   7.65644694755292     -3.61283317693435     -0.05967875476229
  C   8.71539197732930     -4.66625933851133     -0.14251197959773
  N   6.35328294647812     -4.03484679405219     -0.19873789390087
  H   0.68489955387495      0.85716054737664     -0.32207661160795
  H   0.50892089718791     -0.61046680719796      0.61981116502998
  H   0.72598155112193     -0.71163320248183     -1.13083001053539
  H   2.91580422489049      1.99181133907879      0.14187694551859
  H   5.52854910899232      1.23795962514334      0.32464847754119
  H   1.19506703178554     -2.56201317233332      0.28277237582090
  H   1.82525105034045     -4.00581258196643     -0.26896316178913
  H   8.65424135603774     -5.18823569286698     -1.10244273324321
  H   8.56431795191838     -5.42049802394299      0.63626598864830
  H   9.71252817458321     -4.24294064145978     -0.03371598479697
