28
Coordinates from ORCA-job 22716optt
  C   1.15230020659848     -0.10699185156841      0.09162217872884
  N   2.58815389925216     -0.06870100364358     -0.07884644414252
  C   3.17939710883678      1.15643001261528     -0.10179740671049
  C   2.60471780833755      2.43362261956550     -0.04755425489123
  N   3.65521760657175      3.37825145424735     -0.22454537244994
  C   4.85898106337075      2.66374254247530     -0.24512580202398
  C   4.59027352368964      1.31207831815247     -0.22594096859801
  C   5.47690252383734      0.16855964262001     -0.30882121034622
  O   6.72268086965641      0.25749721064690     -0.39430960591979
  C   4.74525839976129     -1.06257611613441     -0.27321402046467
  F   5.47656647425258     -2.20374907909432     -0.33848557535030
  C   3.38375026495735     -1.21649327858777     -0.17844513106265
  C   2.75114221873593     -2.57154462735979     -0.18253877216840
  C   2.40014224071559     -3.08580373378406      1.21449570398806
  N   1.69184988910509     -4.36510056150178      1.12297234337718
  C   1.28211083234407      2.87107983547613      0.07531742500184
  N   0.20472156640320      3.28507392690992      0.19644424513189
  H   0.86927525202018      0.41423459653716      1.01004872619594
  H   0.79844635638265     -1.13004689520777      0.14810484342980
  H   0.65363579540536      0.39714397606846     -0.73957271296150
  H   3.60197180248295      4.23014082221184      0.31655091843460
  H   5.80892816798251      3.15922550193520     -0.34102493287972
  H   3.44699060474563     -3.27568677916901     -0.63591808802011
  H   1.84982137961406     -2.58446773682452     -0.80769592993776
  H   1.83784890122739     -2.31622484610677      1.75863387158583
  H   3.33133325705939     -3.24392328367813      1.76068759934421
  H   0.82488052107834     -4.24429375780419      0.61065249402030
  H   1.44470146557546     -4.70747690899704      2.04330587868878
