25
Coordinates from ORCA-job 2272optt
  Br  1.09528228048547      0.32925850330681     -0.81990287986715
  C   3.04607580589048      0.29579203472261      0.28861774226706
  C   3.94782884241472      1.28540289858114     -0.09683375299367
  C   3.74346370253438      2.76033271218853     -0.33546205703610
  C   5.20583842544921      3.24873249609976     -0.43904871409860
  C   6.01581612904934      2.06404437346353     -0.96182104434922
  C   5.22933458983918      0.87576564227495     -0.45578315508607
  N   5.73017528032737     -0.34405932495305     -0.42879373971153
  C   4.89457491836069     -1.33247751975354      0.00988892675202
  O   5.19255241256745     -2.50985500706830      0.12627880653074
  N   3.57847642182953     -0.94158078299141      0.36333789575616
  C   5.51652142465704      3.63441734212670      1.02634729023026
  N   4.24657315900267      4.11607518554499      1.51211858714368
  C   3.18059014468841      3.51702331514099      0.86182461980130
  O   2.03125474602309      3.61909006245896      1.20204545725443
  C   6.06034948168728      2.52828209874149      1.92649954645624
  O   5.76105863601533      2.46042711051573      3.08810552328678
  H   3.12330276877341      2.95252786123712     -1.21460176525759
  H   5.29726898415471      4.14198630229467     -1.05657158323811
  H   7.06089129135391      2.04717457210333     -0.64785554019874
  H   6.00853265674337      2.04633437499907     -2.05494414608129
  H   2.98832516849439     -1.71369633398880      0.63939964445034
  H   6.27945838215244      4.42328603618387      1.05084722939840
  H   4.13452407622824      4.30085688301383      2.49891506554723
  H   6.79693027127751      1.82985916375687      1.49439204304342
