22
Coordinates from ORCA-job 22727optt
  C   0.98596016863928     -0.08748728005143     -0.03815525612436
  C   2.47986482662827     -0.06232383185189     -0.06633966432991
  C   3.31393934336037     -1.17546948589109     -0.16889173415905
  O   2.90468012772296     -2.49740853862718     -0.27043562157129
  C   4.65663742114644     -0.76305185282713     -0.14244418398102
  N   5.76330993753730     -1.54445657766905     -0.24212984985954
  N   6.93173835144474     -0.80948772262353     -0.11892339709912
  C   7.01957650927935      0.55144562642791     -0.12012594602926
  O   8.30775404375309      0.99880508437648     -0.15599963641325
  C   5.91353787545455      1.32259813584591     -0.05594172261694
  Cl  6.12526516871441      3.06094588125050      0.03460963580216
  C   4.63059071524894      0.68346857573654     -0.02766722475700
  C   3.30329483781792      1.09637451443126      0.01729411747546
  N   2.77871928084382      2.43400896442946      0.11516962773548
  H   0.58947010502409     -0.67883258333625      0.79827228231237
  H   0.55162895303957     -0.50321403590678     -0.95724985546040
  H   0.60902014948766      0.93026578661227      0.07111913669259
  H   1.94375237962454     -2.48956291990267     -0.27409234411127
  H   7.75997733336971     -1.30704560794945     -0.39804774907832
  H   8.27049356066072      1.96233321158264     -0.11715554206162
  H   3.13977879652023      2.89930493291504      0.94018056175717
  H   3.08001011468195      2.99478972302842     -0.67404563412288
