27
Coordinates from ORCA-job 22731optt
  C   1.17674330600354      0.52549587408982      0.39228030506976
  C   2.65185014468095      0.25471636240548      0.21593888343334
  N   3.45315775080222      1.34017359402247      0.34132285102702
  C   4.78132857244391      1.13197953399478      0.17392515024688
  C   5.61125060670000      2.39595969357647      0.27464651442763
  O   4.96014346678522      3.37090916857617      1.05859302343841
  C   5.34633957143987     -0.07809222641503     -0.11452170339377
  C   4.50881397107396     -1.20741628527843     -0.33605905807912
  Cl  5.21121302215540     -2.82021239402389      0.21347479800696
  C   3.10981850320387     -1.00806922739279     -0.09295777603315
  C   2.16158105424424     -2.16764218456942     -0.23867217544687
  C   1.86477007025346     -2.84475654282933      1.05646895455920
  C   2.26881589749679     -2.55187998536763      2.28751837752148
  S   1.64465504428093     -3.69815777305843      3.44344754832367
  C   0.80851626663669     -4.56711296108831      2.14972089799920
  O   0.12684042521762     -5.54180029224871      2.25803968236407
  O   1.04784796957008     -3.95451451978036      0.96689918386350
  H   1.05042861471071      1.52654033458192      0.79982647316763
  H   0.70524356339777     -0.19385365087287      1.06553793425965
  H   0.64724339942352      0.47864826871283     -0.56430956381910
  H   5.78391493690556      2.79262202969674     -0.73567775353555
  H   6.58691448934077      2.17221269935100      0.71421620888347
  H   4.03289633883393      3.06986194191941      1.06323069509961
  H   6.42284482190558     -0.16811056516902     -0.20966101681988
  H   2.59544206208191     -2.91464470632919     -0.91020011815055
  H   1.20854799099390     -1.85772967873838     -0.67933693766383
  H   2.92783813941750     -1.74112650776527      2.54930862125034
