27
Coordinates from ORCA-job 22750optt
  Cl  6.88309015554763      3.60574723973102     -4.73161264072195
  C   5.79567672277809      3.13014618684365     -3.41894263062262
  N   6.13293839717551      3.58934539980137     -2.20749637689731
  C   5.23348299375121      3.15655209367258     -1.24678883123222
  C   5.53037643403705      3.60959162643785      0.13719859169250
  O   6.84591310835065      3.10935154500946      0.52030662820155
  C   7.88057722677486      3.92173506484366      0.34449852769789
  O   7.84458932832571      5.12416463611566      0.32767343186355
  C   9.15285691037585      3.13195345807979      0.13397718366025
  C   9.21655575725046      2.59518799749158     -1.30903139275171
  C   10.69685605546223      2.61550919604563     -1.61319658655253
  O   11.27292043468904      2.03559307058714     -2.49365482451029
  C   11.37360100257117      3.49703591709059     -0.56174146784701
  N   10.32647664340133      3.99063094738460      0.31923524395404
  C   4.16215253945309      2.35076728041183     -1.53214267923688
  N   3.83619078008030      1.91474528798084     -2.76868918396754
  C   4.72172904319969      2.34528790579309     -3.72820261805780
  H   4.82860055702534      3.19193660810339      0.85655899702096
  H   5.56323311159595      4.69604865720461      0.22061506901389
  H   9.17212691572718      2.30184421763598      0.84451000988779
  H   8.69572054124184      3.27952196637991     -1.99119372680482
  H   8.77843885332708      1.61052736252262     -1.45534643307117
  H   11.93245481605105      4.29998551051722     -1.04271850240814
  H   12.09457392812612      2.87331838276205     -0.02177719025447
  H   10.04497476511142      4.93564361743609      0.08027620417073
  H   3.51353404359269      2.03377627444055     -0.71779405954591
  H   4.54635893497727      2.03905254967719     -4.75152074268078
