25
Coordinates from ORCA-job 22751optt
  C   2.71556437552259     -2.55973646593953      0.79098466805929
  C   3.93702726139126     -1.75013690628162      0.41349994219424
  O   4.56158514444757     -1.99509888977970     -0.59059847310230
  C   4.30856916507675     -0.64019754931977      1.36372088505248
  C   5.26065738266412      0.40873229222424      0.79229306829716
  C   5.68559054958300      1.38921300813382      1.83789846959452
  C   4.99246747292256      2.50051927984334      2.24986383768744
  Cl  3.47281265430623      2.84199808444603      1.38510426063991
  N   5.28114202365905      3.35222160470208      3.21989739745076
  C   6.43078821734639      3.04183908701702      3.88731657295870
  N   6.97434544952950      3.74852204208654      4.90185032748559
  C   8.09646677998883      3.07974747451959      5.22862580665952
  C   8.31663799407742      1.92428182710139      4.45260899764290
  C   7.23026851110104      1.90407506584677      3.58079005978183
  N   6.81995197427623      1.03433012880797      2.57819803050258
  H   2.64936557250965     -3.45155323547487      0.17234606267232
  H   1.82759676349268     -1.94176160015398      0.63960004454733
  H   2.74391291892657     -2.82561453200021      1.84883535964167
  H   4.76268368887592     -1.11199202829472      2.24417497642483
  H   3.39568832131299     -0.15838222345446      1.72628709009155
  H   4.77353105663817      0.91798760257275     -0.03828431096101
  H   6.13824599106834     -0.09729494986489      0.37952433158022
  H   8.73553696020199      3.43981139175608      6.02550043586627
  H   9.13504050703888      1.22401189602231      4.52759778891671
  H   7.52352326404217      0.49547759548379      2.09436437031544
