26
Coordinates from ORCA-job 22765optt
  C   3.42496658411980     -0.52916010173605     -0.67830553034276
  C   2.36663429929965     -0.22721486435066      0.36872493378814
  O   2.27256940236337     -1.38746343174199      1.19271740196434
  C   2.68501765323966      1.02460548661223      1.14803855676897
  C   3.17877922851472      0.93336554239070      2.39419460209361
  O   3.50341128250257      1.99565760301963      3.19026298044997
  C   3.20405811937509      3.27103743990427      2.75289899964215
  Cl  4.17729129523346      4.45168666282105      3.60939935417575
  C   2.86957191430744      3.46614938862539      1.39440017453078
  C   2.69123286819119      4.59223458146616      0.58810084027129
  N   2.27233502210540      4.24107792085095     -0.64418702784547
  C   2.16395847927471      2.88794450996948     -0.66390078683436
  C   1.76166178465610      2.24205438814078     -1.96528540234784
  N   0.73878631122290      2.99450297830659     -2.70582588380381
  C   2.52312733498512      2.34277837689899      0.57333783409786
  H   3.12898175882498     -1.38678886695956     -1.28474045072431
  H   4.36495069944662     -0.75574991000940     -0.17329979919166
  H   3.57417127858055      0.33487876818025     -1.32387888275022
  H   1.40267413300107     -0.07170771132334     -0.13008906711536
  H   1.71016025328726     -1.15870109278547      1.94027684789859
  H   3.39991038885125     -0.00060287069373      2.88867519927801
  H   2.85155511332863      5.62570290535340      0.86091535950967
  H   1.39598566434681      1.22603116789767     -1.81250938764114
  H   2.63147238819387      2.15893539317518     -2.62751138371666
  H   -0.09595216382593      3.01866111245327     -2.12631487345894
  H   1.05768890657365      3.96108462353418     -2.69809460869661
