23
Coordinates from ORCA-job 22769optt
  C   0.96766710267412     -0.17854967256193      0.14038207844858
  C   2.45333312448146     -0.11411945973120      0.00549805918641
  C   3.23294369375152      1.04018958251884     -0.04505742478591
  O   2.74551599101770      2.35257640172158      0.04857010269101
  C   4.59020482190851      0.68059787991768     -0.16179323172110
  C   5.82928705863864      1.38058593465550     -0.18430800732329
  N   5.84630081085892      2.78954238613552     -0.20100730886892
  C   6.95669288989161      0.58717531211901     -0.18564396993249
  Cl  8.52890908490591      1.38382074855286     -0.10492059951804
  N   7.04513799929314     -0.74340084042506     -0.20442951224108
  N   5.84053152948003     -1.38404457931791     -0.34486309724168
  C   4.62625466369345     -0.73697274970008     -0.18588297248368
  C   3.33730058604590     -1.23496482281954     -0.08349448519221
  N   3.00347251801797     -2.63165476182006     -0.06626184005952
  H   0.55606271625749      0.82825915768879      0.22964253050511
  H   0.65549770249109     -0.74287100965196      1.02745841497892
  H   0.48856882091874     -0.66118750933933     -0.72026025207224
  H   2.77136631942946      2.73364262489741     -0.83376425900900
  H   5.04115844602715      3.15663188793642      0.29157508089129
  H   6.70581561902100      3.16968332682240      0.17095780024687
  H   5.88492680050003     -2.36655759433017     -0.13511614426156
  H   2.48726550133541     -2.87864369488369      0.77099289299141
  H   2.41978619936061     -2.88773854838509     -0.85527385522889
