30
Coordinates from ORCA-job 22763optt
  C   0.70374596168154      0.94308187127292     -1.25931211480913
  C   2.08713097053979      1.32698739995099     -1.75559302444452
  N   3.05799423418076      1.17667606854135     -0.67419877960048
  C   4.39892027803585      1.38378298422229     -1.05054309367288
  C   4.93528742040770      2.55866763417602     -1.38312381351125
  Cl  4.04836837423722      4.05671188842649     -1.35044060322412
  N   6.23691631537864      2.69475480798010     -1.88065046602480
  N   7.17894278774916      1.68748173565869     -1.58208810086552
  C   6.65239299455362      0.48573304370878     -1.27757878747526
  C   7.71601615428638     -0.54596426957295     -1.00800530310038
  C   7.79703726958438     -0.88668922210869      0.47918802979698
  O   7.48111272715956     -1.72519057468711     -1.78895236522301
  C   8.62633648439259     -2.49699723984015     -1.98793248939688
  C   5.28995578793078      0.19473877329280     -1.05976902846799
  N   4.69287901159086     -0.96276651692796     -0.78442732002944
  H   -0.04238803426865      1.05683906721565     -2.04807959627362
  H   0.42038842334407      1.56998993853853     -0.41241886862161
  H   0.69346633551995     -0.09773956686989     -0.92854375666227
  H   2.08596296916835      2.36520427431629     -2.08987440311950
  H   2.36045015040123      0.70557251138101     -2.61995386023196
  H   3.04229748980249      0.20160862153707     -0.36735287127648
  H   6.63631113901687      3.59518629895922     -1.65621324502052
  H   8.66528176647611     -0.10616198927690     -1.33581380452230
  H   6.82414461408175     -1.22891202242398      0.83346092128457
  H   8.07224439325371      0.01406118708842      1.02972509213160
  H   8.54660104695769     -1.65514064793934      0.68597137556219
  H   8.35085932464795     -3.34003755280574     -2.62269760288779
  H   9.03747033853178     -2.89203730088999     -1.05022455030566
  H   9.41425353017598     -1.91891648017410     -2.48947041941985
  H   5.36061974118171     -1.72252472274984     -0.86208715058810
