27
Coordinates from ORCA-job 22764optt
  C   1.35778353151819      0.45549881295706     -2.06772268083097
  C   2.38269485462540      0.00781548658370     -1.07162737566523
  N   2.49957004459522      0.34517698175818      0.14173563900276
  O   3.21730761917172     -0.89053243286209     -1.63084407298279
  C   4.56574262469333     -0.82182995847498     -1.29930228392230
  C   5.17184044004074     -1.87896698043708     -0.61753646521619
  O   6.57264474274204     -1.95186609598172     -0.67717604090071
  C   7.28657756774590     -0.86172444451931     -1.02751904687613
  C   8.74273146995137     -1.09600536444882     -0.80805953350782
  C   6.69729127817451      0.23451562060791     -1.52461861941188
  Cl  7.66145164281617      1.62564433768771     -1.94078709548843
  C   5.24534750604295      0.30382502297513     -1.79993203315927
  N   4.62794956979244      1.26683142821141     -2.44591033177829
  C   4.59787691249144     -2.92997200319445      0.15720628966512
  N   3.22179275399545     -2.84547180227023      0.42203880286795
  N   5.23919682414424     -3.95821956363766      0.63795404109852
  H   0.59115932178038      1.07327654506069     -1.60371076833995
  H   0.89917388797678     -0.41581273982299     -2.53597758582078
  H   1.89279098524961      1.01776532243828     -2.83451337057511
  H   1.78435651050086      1.02383463883991      0.38281461803378
  H   9.04390744425058     -1.99203654253547     -1.35541433771382
  H   8.92786641078951     -1.28363309183947      0.25151999275548
  H   9.34149693982135     -0.25289252594721     -1.13719514135822
  H   5.29592270176589      1.98121004241575     -2.71780761133295
  H   2.89905799768314     -1.89879526660129      0.58606338417824
  H   3.00200763528331     -3.46404127965694      1.18976809194498
  H   6.20346078235737     -3.92759414730602      0.32255353533402
