30
Coordinates from ORCA-job 22760optt
  C   1.33212297926459      0.47798844513025      0.67323237941981
  C   2.58412813765585     -0.16089591247276      0.08364473577435
  C   3.25882632857045     -1.05640119633082      1.13065731745190
  O   2.38465781824119     -2.06450071221880      1.62955623492298
  C   2.21017399457855     -0.98702094636744     -1.14976207716652
  N   3.34428194944332     -1.37213157723245     -1.98247594108151
  C   4.42369544081104     -0.73945272117258     -1.83427965882071
  O   4.69124969849875      0.30428918912818     -1.03725003140610
  C   3.55840823898754      0.93144761802824     -0.40317969617722
  C   4.04861259983304      1.89707539096255      0.64023107564831
  N   3.24427137614686      2.94427409790392      0.80219057953971
  N   3.56879356583619      3.73894449136856      1.89152920993640
  C   4.80106358269044      3.78121028788009      2.57466997352456
  N   5.09805674366571      4.74191649271099      3.39447507642541
  C   5.61688153367229      2.65147256834468      2.30077685532447
  Cl  7.13381921878933      2.49092634419961      3.12371110601363
  C   5.21486966717669      1.68796883077371      1.36401023264380
  H   0.55612896883070     -0.27889631601081      0.81961462348956
  H   0.93939430336857      1.24430367778644      0.00330239041194
  H   1.55166113133048      0.97076448359287      1.62176529153519
  H   3.63867419169411     -0.43682947396581      1.94618179718799
  H   4.10310010538766     -1.58691727925444      0.68875530855679
  H   1.73381670759290     -1.63699727194826      2.19250403783464
  H   1.50255846473472     -0.42562235758926     -1.76939638796571
  H   1.70120460128094     -1.90050129123711     -0.83457915399124
  H   5.31056493932596     -1.02769031862318     -2.39399457690549
  H   3.03207614683382      1.51453183126985     -1.16799220971258
  H   3.08040084751450      4.61884379736059      1.86477109471648
  H   4.33866040718165      5.42048726090058      3.42193111343314
  H   5.83684631106203      0.82841256708256      1.15839929943600
