29
Coordinates from ORCA-job 22762optt
  C   2.23561380330631      1.04501804489341      1.69321040345093
  C   3.28186811467598      1.28317664761867      0.62122096804347
  O   4.14195029899005      0.14616170303188      0.51753977527335
  C   2.70386724569857      1.63282100647161     -0.77276471044763
  C   3.92726418120944      2.15123309139249     -1.54813418291688
  C   4.87611044976512      2.67519591045473     -0.47211713917689
  O   5.96199101981865      3.21515092157907     -0.66893224754021
  C   4.16868022401416      2.49582185100501      0.84928588056444
  C   3.36133165769894      3.75937242821302      0.76764671401169
  C   3.87058261538388      5.00158412084590      1.26150257780543
  N   5.13788006271212      5.00063807746550      1.87587385795268
  C   3.05414830686864      6.09998155127604      1.14305997135538
  Cl  3.62792920801899      7.63132577033561      1.82930147728056
  N   1.84834039016897      6.16265564855308      0.56986004030794
  C   1.45629191362593      5.01522586174926     -0.03909615906835
  C   2.14690361975446      3.83137976805603      0.03028841517382
  N   1.68555358101487      2.67204608049850     -0.67628520472658
  H   1.53325742741328      0.26435475342690      1.37910605501381
  H   1.67652055816565      1.95441043134614      1.91078518783660
  H   2.72963279164408      0.71411239349137      2.60754007495824
  H   3.61860934372427     -0.58998843721821      0.18415748519567
  H   2.24911853046430      0.75065255741949     -1.23646980530995
  H   3.63893013883133      2.93148175779892     -2.25762649542334
  H   4.43669752676649      1.35509364781023     -2.09819463947796
  H   4.82127390514305      2.43606347067631      1.72021752394644
  H   5.80513307170131      4.49259000981786      1.29969443150968
  H   5.46944077571958      5.94178462880252      2.03553319653718
  H   0.53343877232395      5.05647196468669     -0.60993440577970
  H   0.83264046537757      2.30718433850193     -0.27126904634982
