25
Coordinates from ORCA-job 2277optt
  Br  0.97678967509644     -0.79462848559785     -0.67137161793651
  C   2.82329311981326     -0.44792384335762     -0.33729506614504
  C   3.31466057505899      0.88318963765410     -0.12752171644532
  C   2.39530776931329      2.06764132749164     -0.12349943116896
  C   2.52683144458324      2.94064405225817     -1.40786788894295
  C   3.55547408375082      3.79277957594172     -0.63941487027525
  C   2.89053520389238      3.30908491471203      0.66646150035561
  C   4.98694488275357      3.25116217313326     -0.73992170693130
  O   5.29528816025577      2.22263115696065      0.17430059207737
  C   4.71057370639938      0.98166049273321     -0.00898548704139
  N   5.58625898337075      0.00066073036555      0.00142191152266
  C   5.07603162109254     -1.26673595011646     -0.12793066854811
  C   3.68741700599390     -1.50834517488175     -0.32611734959791
  S   3.47191828658144     -3.21358336282974     -0.50541117503167
  N   5.09465217912581     -3.60423727924241     -0.32421686550855
  C   5.78108378603509     -2.47617334988899     -0.13635714712502
  H   1.38547551865228      1.74454530860609      0.11669347368501
  H   1.61294417353595      3.50370127482990     -1.60979155394831
  H   2.86240180322435      2.43321464090714     -2.31323685107632
  H   3.55822944655425      4.86502815831866     -0.84824114537359
  H   2.04677454836124      3.94400284613240      0.94034449946163
  H   3.53268092507031      3.13986657932430      1.52789388508685
  H   5.69339490162969      4.04738702372134     -0.49797025311745
  H   5.19345972515171      2.91213261222314     -1.76304017121787
  H   6.85557847470350     -2.53570505939850     -0.00792489675762
