24
Coordinates from ORCA-job 22782optt
  Cl  1.58198432197918      1.08051793059541     -1.39385578778200
  C   3.08812987416443      0.37485891401737     -0.80994815416543
  N   3.98116355963519      1.30020269739512     -0.47749385517571
  C   5.21503356032718      0.91514281314109     -0.08084104588556
  N   6.16128211926807      1.67580165331486      0.32245652116222
  O   5.55600999875654     -0.42927921042164     -0.11512407457847
  C   4.58870108624969     -1.37086774924844     -0.35710223325326
  C   3.29581098708550     -1.00815649667194     -0.75232437074297
  C   2.31936240926878     -2.08558471995086     -1.03708927820804
  N   1.06073692579300     -2.00735728122295     -1.24938549528685
  N   2.86744947242285     -3.37146109648087     -1.10864656081268
  C   3.94779631256588     -3.75221609059894     -0.24150303451903
  C   3.80603384906842     -3.69702815850313      1.30323586187062
  C   5.24091897274130     -3.12932284866633      1.35676037748291
  C   5.09730262132750     -2.74117158051357     -0.14542889079752
  H   5.80357749795153      2.62598371479233      0.28767394219259
  H   0.74968359206483     -1.04572553808869     -1.24544500852461
  H   2.11595989832030     -4.04447907781902     -1.17574006926927
  H   4.31810323039424     -4.73010582913102     -0.55348672267418
  H   3.60105173725841     -4.63054123116770      1.82791532110266
  H   3.06692916547366     -2.94809024035972      1.58752512237315
  H   5.98561333515178     -3.91573403355247      1.49610353323600
  H   5.44190040362973     -2.30971830725201      2.04341084140926
  H   5.98146506910193     -2.92866823360684     -0.76466693915381
