26
Coordinates from ORCA-job 2278optt
  Br  0.06977151842683     -0.80477129063788      0.84474812509300
  C   2.55382344281903     -1.25839869905463      0.30031027185539
  C   3.17490387826824     -1.03084733270415     -0.89338348896903
  C   2.32440761201030     -1.12748418061951     -2.12091308623735
  C   2.03241487864634      0.19481852016624     -2.87572843845291
  C   2.93905647302290     -0.28023439906154     -4.03687545149845
  C   3.00566486389996     -1.68621710945043     -3.39389588880172
  N   4.18796611939240      0.42213120361417     -4.14008296460040
  C   5.05844239462954      0.49982650029343     -3.23048291091179
  N   5.23015700608973      0.02738225966049     -1.92953297016813
  C   4.53441583551280     -0.57742981233110     -0.85878575700014
  C   5.28256543313421     -0.62669112342082      0.29595366445204
  S   4.78575242979212     -1.52039646673585      1.65563439167874
  O   5.05619556332738     -2.92289373048060      1.50405180069829
  O   5.22029172510174     -0.91835733968328      2.89006001878116
  N   3.14577861329142     -1.28122252367537      1.50042751496950
  H   1.41922901020702     -1.65223827685340     -1.82765673820842
  H   2.36396913688005      1.10842272135391     -2.38289622477386
  H   0.98467448047405      0.29965370256297     -3.15432582629359
  H   2.47289209664051     -0.25241929351169     -5.02115362758110
  H   4.01006300625910     -2.09158484895354     -3.26640331958281
  H   2.39311448381385     -2.41874102433369     -3.91888577005852
  H   5.95798675801002      1.05884434208665     -3.49388273852576
  H   6.16211870956558      0.25944475878110     -1.62579239270615
  H   6.24758821053647     -0.15335164317709      0.40582144847925
  H   2.56975632024820     -1.27624491383432      2.33567035836285
