27
Coordinates from ORCA-job 22783optt
  C   2.46737469262960      1.26475751849992     -2.28186844660367
  C   3.41929582756697      0.69509415705402     -1.24490372262356
  N   3.72493891922464     -0.69157930319462     -1.52787480418455
  C   4.69157007652844     -1.26256783608677     -0.59638208408392
  C   5.18951225308684     -2.59362086797669     -1.04629679169525
  C   6.37513509264918     -2.87883474078786     -1.63136000553127
  O   6.41193552554632     -4.20854973693363     -1.88249292396386
  C   5.22527573488638     -4.69138198157914     -1.42633499790388
  N   4.46255312008292     -3.75352188358405     -0.92073880743655
  C   4.93418804609256     -6.10441451621375     -1.52181356949295
  N   3.71247172986446     -6.45896444634451     -1.05937107828273
  C   3.29875598746796     -7.70097166306409     -1.07361090148725
  Cl  1.65582660484980     -7.90559176876912     -0.41180353739065
  N   3.81922616028155     -8.82412751711932     -1.46476630257505
  S   5.36291564161457     -8.74108787848944     -2.09935091353279
  C   5.89695065004537     -7.04185468215973     -2.06254622512589
  N   7.06916067938010     -6.75833613622090     -2.50309629741064
  H   2.21873172640036      2.30316663162430     -2.05795671243800
  H   1.54849140230218      0.67924389870853     -2.31045073916215
  H   2.91834884094086      1.23390941265532     -3.27632079783672
  H   2.95620781631907      0.74000704387706     -0.25428695629062
  H   4.32757963264490      1.32090124834671     -1.19111944713098
  H   4.07283921017836     -0.79465838628311     -2.47508797894513
  H   4.20134999661800     -1.37276575642366      0.37472934972816
  H   5.55668235493319     -0.59354666785798     -0.45592536209437
  H   7.23992227432866     -2.29929049651947     -1.90299392110853
  H   7.54376000353666     -7.60141364515796     -2.82697602539718
