30
Coordinates from ORCA-job 22781optt
  C   1.48650037059055     -1.04803088510897      1.39033819343454
  C   2.84928436024302     -0.52616244856336      0.96114356548659
  C   2.71231919923815      0.69844655048930      0.03254627094048
  N   2.06593629696655      1.75443424879979      0.74912962766649
  C   1.01030478311319      2.34516669792769      0.26680600911290
  O   0.34073326265887      3.01924043093145      1.29678064512246
  C   -0.89523954917771      3.56881337610547      1.09062001636702
  C   -1.51087941603265      3.54490470944713     -0.12234758909416
  C   -0.81215508127171      3.00497963462053     -1.20046328744226
  Cl  -1.63229711980307      2.89394355038469     -2.74916461714430
  C   0.48517489802079      2.44638258877039     -1.04347654760831
  C   1.31920017023611      2.15089458455966     -2.26236866019886
  C   4.08450998064228      1.12505705398836     -0.43963118555834
  C   4.74167965637570      2.28840746478863     -0.18339105963796
  N   6.00189408215830      2.41580990473197     -0.71950312541967
  C   6.31460405653236      1.35715340693496     -1.39163799409784
  S   5.10388148312262      0.13438450113230     -1.41279499225324
  H   1.57936874323384     -1.90191545155822      2.06463605518403
  H   0.90171645261894     -1.36212919028891      0.52180090826312
  H   0.93438114328605     -0.25558403639423      1.89545954978567
  H   3.41403621479348     -1.31246492484022      0.44833154387528
  H   3.42950366856724     -0.21534898379620      1.83389645379883
  H   2.14091223762314      0.35693226490690     -0.84182641417789
  H   -1.30742967752779      3.99639310905618      1.99118360169317
  H   -2.50883272181528      3.94436006483857     -0.23243229584991
  H   1.11002688337182      2.89296799658167     -3.03620636440848
  H   1.12632002793578      1.17029894335641     -2.71375431913808
  H   2.38299517328215      2.21178657915076     -2.03576432614777
  H   4.30784039647654      3.08335366442429      0.40340212355596
  H   7.25471002454070      1.22352459462299     -1.90831178610947
