25
Coordinates from ORCA-job 22797optt
  C   0.90236494235482     -0.12206871503101      0.24328614643505
  C   2.38120650288596      0.03057434202815      0.03285208349665
  C   3.18116636451905     -1.05244511448353     -0.25791422981865
  Cl  2.62005915409768     -2.69090069105275     -0.19997139597294
  O   4.53695034382027     -0.99994270976394     -0.40891799820963
  C   5.25798868150775      0.21176966925971     -0.29007033083379
  N   6.52153697845329      0.14183904626164     -0.41222933745865
  C   4.44845928576618      1.36047074846955     -0.05020886859242
  C   3.04655031328719      1.24858178575392      0.10609288704819
  C   2.46967711530856      2.63281731196632      0.23636385216241
  C   1.75355276950524      3.05307122696152     -1.07540419481680
  C   1.24861761876315      4.42143131064021     -1.01750844570302
  C   0.85422453171811      5.54996334721249     -0.91084203492934
  N   3.65373230589597      3.42759837524460      0.48610469510988
  C   4.84232162702156      2.73653581370376      0.13298100704773
  O   5.91347406895772      3.31175285610628      0.04837750476573
  H   0.68902288588668     -0.88673436565677      0.99314230044704
  H   0.38646889053766     -0.42037640112206     -0.67357305742216
  H   0.46882876344169      0.81731640600841      0.58770490770665
  H   6.78500151074701     -0.82636954439033     -0.58273166795700
  H   1.74971270126207      2.72730424993069      1.05700493227803
  H   0.92867723652706      2.36415751316064     -1.27146340024220
  H   2.47258224122718      2.95241755590235     -1.89189172486198
  H   0.51083604012611      6.55234231357579     -0.82836655806137
  H   3.63798712638196      4.41389366931427      0.27218292838258
