21
Coordinates from ORCA-job 22796optt
  Cl  1.17757679729264      0.03249432417885     -0.18425298571008
  C   2.90261420379860     -0.08965095758320     -0.06762483638717
  C   3.54543965009122     -1.25890320324517      0.01633659747796
  C   4.98884768035729     -1.24645287316645      0.11293419709199
  C   5.70358590492264     -2.40600139542430      0.20417013670038
  N   7.09223531282203     -2.40894844717379      0.29987918507003
  C   7.69619327616029     -3.63596914082491      0.39942663756915
  O   7.06632374695041     -4.68904596191883      0.39535689237923
  C   9.15289819649458     -3.72890859068449      0.52815579039952
  N   10.23955196690434     -4.08222902967179      0.64362960814809
  C   7.85116071714107     -1.16215582444813      0.29090591708951
  O   9.07115219767324     -1.23200497074535      0.35853753952317
  C   7.07024599062811      0.01009222071533      0.20127813259142
  C   5.68291366432797      0.00155881714102      0.11266778815628
  C   4.94996018147946      1.24992003030908      0.01880132590140
  O   5.42851942208186      2.37617797896894      0.00794574502222
  N   3.55844972338432      1.11378409598870     -0.06617158337899
  H   2.99570604020670     -2.18805787789822      0.01376002410611
  H   5.25022097286831     -3.38390979872266      0.21257428183738
  H   7.60831115446667      0.94646177359072      0.19871883231699
  H   3.04009319994820      1.97474883061467     -0.13702922590459
