28
Coordinates from ORCA-job 2279optt
  Br  2.02795639834149     -0.56924889040901      2.20427666719216
  C   3.60290309741069     -0.08206912728000      1.15568686947478
  C   4.15584980676993      1.13350782677362      1.33995686123244
  C   3.25064208755172      2.32996907011829      1.14988023105091
  C   1.77082861497464      2.60867298844775      1.46559560519414
  C   2.01358483541834      3.89809208018542      0.64588528422284
  C   3.48197184451137      3.84742165033474      1.12256581363423
  O   1.80468550995549      3.56642236423786     -0.74152732872919
  C   2.83957417171188      3.63291163666116     -1.70110796738887
  O   3.82030674419068      2.64195347169595     -1.63775352230630
  C   3.45922940718664      1.29382632991248     -2.00733493767593
  C   4.37981957652339      0.25795430250114     -1.38575891152822
  S   3.70357969770312     -1.02008369486555     -0.35683628783303
  C   5.69359270567215      0.51972405102887     -0.91660991080530
  S   5.81826268215379      1.40094520045488      0.59294136275269
  O   6.75518159101499      0.68339514194842      1.43523544613706
  O   6.01088574485359      2.83097746763105      0.50717989283580
  H   3.16998494447873      2.14940854271154      0.08973480745703
  H   1.59172594851586      2.83089747647630      2.51887724364082
  H   1.02047493888926      1.92534429215688      1.07694850981272
  H   1.41923470061829      4.78357538816180      0.87226403418877
  H   3.55817939457190      4.29604992535673      2.11461908258679
  H   4.26747772824432      4.22061666310852      0.47502819056413
  H   2.30610816085900      3.58834190825327     -2.65691670404975
  H   3.38510841858041      4.57552925110379     -1.61378784452332
  H   3.53069836683043      1.24955666865459     -3.10214851667723
  H   2.41960897657396      1.09661688359886     -1.72689516578705
  H   6.25254390589388     -0.38630886895939     -0.69299880467312
