27
Coordinates from ORCA-job 22794optt
  C   0.91419581476749      0.30387120190789      0.32284989246027
  C   2.35410280148024     -0.12563926250768      0.41660641742700
  O   2.57288735224991     -1.47269493822787     -0.09360825146878
  C   3.91214680061768     -1.02703386853291     -0.48135629830709
  C   3.37905876734936      0.36978431215708     -0.62393173928788
  C   4.62136479806960      1.20207271183598     -0.90639643265820
  C   5.32246594136490      0.18679836858908     -1.82885391416913
  C   6.37905044489912      0.42448425398030     -2.65776739443644
  Cl  7.05195882349771      2.01339316066997     -2.83336586421206
  C   6.98475740903730     -0.63417798720687     -3.42547178333866
  O   7.91472794955222     -0.51026234120789     -4.21588404898081
  N   6.40034034109802     -1.89669831491703     -3.21841383789635
  C   6.98159828574001     -2.98328234693417     -3.99683187654378
  C   5.40495211014309     -2.17041855164463     -2.34262923556832
  Cl  5.90610591902192     -3.92780399830300     -1.00450751360850
  C   4.81188858928923     -1.13476237957118     -1.67399501217780
  H   0.28160764409673     -0.34268258271065      0.93288669715163
  H   0.57342091691845      0.24652487008256     -0.71107852315934
  H   0.80458147730806      1.33094755164168      0.67733597745876
  H   2.72681592278161     -0.06365058105395      1.44624762671088
  H   4.52903733647498     -1.14597606384318      0.42220795667077
  H   2.80659734443371      0.35203763925583     -1.55677552052573
  H   5.24404125769175      1.36365803801418     -0.02166051754410
  H   4.46063216543506      2.16176122855479     -1.39554513793714
  H   6.91032497853354     -2.74954110554214     -5.05902372501426
  H   6.44021196658235     -3.88968945862425     -3.74793347257063
  H   8.03512684156578     -3.09401955586191     -3.74310446847426
