28
Coordinates from ORCA-job 22803optt
  C   1.02582150012560     -0.17754220289520      0.24486119774142
  C   2.50819100763411      0.03702957147912     -0.00533670620536
  C   3.12183436612795      1.15579155817955      0.85368461374066
  N   3.64391574863773      0.15192174894533      1.82760039351284
  C   3.41128041179199     -0.91390356041764      0.80487119742110
  S   2.75390292179378      0.25235687599763     -1.77952101676380
  O   2.05868970124404     -0.82268516175852     -2.44288363086142
  O   2.24256911231180      1.60263648051628     -2.00884787463655
  C   4.43819319633158      0.22697580386179     -2.10368826386812
  C   5.23835017050922      1.39544691559361     -2.35182030035461
  N   4.74667668235394      2.65940759773843     -2.13602085170904
  N   6.48843135005636      1.33972355460877     -2.75785781574377
  C   7.04581667541917      0.14533106973848     -3.00792437449140
  Cl  8.83286281508532      0.05089494517121     -2.73965242679491
  N   6.40350143288059     -1.01309011318248     -2.57860881094235
  C   5.08794460895997     -1.06180377498043     -2.15001368712483
  O   4.60669340993637     -2.14529241166297     -1.83426171169146
  H   0.84197649482805     -0.21784598145834      1.32242701389669
  H   0.69713088988486     -1.11252944286228     -0.20770190705216
  H   0.44364511187732      0.64206407977284     -0.17863137464690
  H   2.42046572787004      1.88914999687407      1.25410328358767
  H   3.94563014775324      1.67116884784117      0.35660448511715
  H   2.96760469261739      0.04349478974841      2.57568086471679
  H   2.93396669155447     -1.82361530038380      1.17016210321530
  H   4.33728570124380     -1.17343947189516      0.30078758659882
  H   3.74336615656160      2.76588941101882     -2.17948027475346
  H   5.31721453952330      3.37426681638176     -2.55620173007468
  H   6.85203873508612     -1.90780264197045     -2.69332998183354
