28
Coordinates from ORCA-job 22806optt
  C   1.06116797973601      0.43351245595687      0.01174236993017
  C   2.53533040208869      0.09796540973396      0.14541345385217
  C   2.77931594410369     -0.92348798365698      1.25095087951727
  O   2.95382524696794     -0.36615902451870     -1.11428322816772
  C   4.35453719121394     -0.58065160161966     -1.21212296065597
  C   4.76337149491407     -0.71755307392894     -2.65356146951377
  C   3.82166913453086     -0.61538002871860     -3.64920857642871
  N   4.04699982972301     -0.74137772629843     -4.96677852230934
  N   5.33378854200855     -0.90482668719021     -5.33497654620866
  C   6.26288100398833     -1.03405139225849     -4.44876212274663
  Cl  7.86916448206444     -1.09294948845256     -5.19376075435679
  C   6.12174311802412     -1.03790892473720     -3.02019890511621
  C   7.13038924789211     -1.29165790877419     -2.03308748585438
  C   8.43799793366177     -1.99981515414355     -2.36055777133225
  O   6.95479231313916     -0.99862305693174     -0.82802890194537
  H   0.67059142879470      0.84395962406996      0.94451741145140
  H   0.50027623006811     -0.46972745749758     -0.23616720470038
  H   0.91124653268189      1.15974895512634     -0.78692406622672
  H   3.09469069110661      1.01435668514614      0.38896892942629
  H   2.28677217043456     -1.86438425926868      0.99504299028730
  H   2.37158172555882     -0.55963324227520      2.19627283045159
  H   3.84302072075127     -1.11470061663611      1.38948422587072
  H   4.64277845370979     -1.47992485951576     -0.66211257674488
  H   4.89010847983971      0.24827349293910     -0.73799093231023
  H   2.78960513339724     -0.42713733786757     -3.38583133309536
  H   8.33334532051620     -2.76709535879451     -3.12514859837500
  H   8.77722948629422     -2.44933028998391     -1.42788752560054
  H   9.19877976279011     -1.29544114990379     -2.70100360909798
