27
Coordinates from ORCA-job 22813optt
  C   1.04951888817341      0.09134674967143      0.29757219041324
  C   2.51234099604529      0.07763791290555     -0.13160779090447
  C   3.02237325060179     -1.32459244382895     -0.43397695696718
  C   2.66365321493125     -1.68753433535886     -1.85563397461928
  O   3.33028710021236     -0.78030372042660     -2.75695189583176
  C   3.25944740016134      0.53315261886739     -2.51228414776407
  O   3.65348427685997      1.33826754590579     -3.32267622684832
  N   2.70443467521986      0.90748779968465     -1.31787901586997
  C   3.08177254161351     -3.09091301167552     -2.23397811400764
  N   3.83359061429143     -3.73782706978845     -1.38369568473960
  C   4.22098116787780     -5.01867840986658     -1.69680382171896
  C   5.03008694177188     -5.75653251150404     -0.78322697682708
  O   5.44456376851250     -5.36935123975934      0.32060333693371
  N   3.85992697475404     -5.64260197222630     -2.87159865603767
  C   3.10268610498261     -4.97880450581105     -3.69669425601868
  C   2.65866933498285     -3.66920653181688     -3.43819473893851
  Cl  1.60828269051194     -2.85700948342771     -4.55806684327411
  H   0.93093961321978     -0.43380725220081      1.24657493557188
  H   0.42542317493792     -0.39693026689973     -0.45243299927776
  H   0.69004122752994      1.11482472461771      0.42073138506611
  H   3.11212415032950      0.50350062303159      0.67836836596058
  H   2.59678348438464     -2.05168819334895      0.25568261968758
  H   4.10499192738859     -1.39366423077625     -0.33394902903340
  H   1.58777003793952     -1.57826056542182     -2.03295070741081
  H   2.70722958547399      1.90761048441741     -1.20184733203206
  H   5.27730329759669     -6.76760842199177     -1.15469123152597
  H   2.80429355969555     -5.46851429297186     -4.62139243398580
