24
Coordinates from ORCA-job 22814optt
  C   3.40113024095785      1.01166105711794      0.68941765712963
  C   2.60686056275960     -0.15783391805000      0.13436217023835
  C   2.40716479305883     -0.06759557007153     -1.40246288131835
  C   3.61197901817627      0.32251543559734     -2.12930666110576
  N   4.54374275926121      0.68236091811503     -2.69414250670313
  N   3.17288137719752     -1.42550171951289      0.51033707980064
  C   4.48641949384706     -1.80586204225178      0.27649332900366
  C   4.49545848640421     -3.17496157608922      0.14030673798255
  N   5.52750890903483     -4.05051475853463     -0.01340894949370
  C   5.14931979950476     -5.30881055175258     -0.10541564176433
  Cl  6.45924019950965     -6.48315800230752     -0.30659120497741
  C   3.86173961833941     -5.81966114035860     -0.05686027242699
  C   2.80016331192540     -4.91512421988512      0.11805157686460
  Cl  1.15898021037424     -5.47770369873189      0.18049102803708
  C   3.09839154956823     -3.55216775449736      0.22210372263919
  N   2.30947510745415     -2.49435204151286      0.39700260694063
  H   2.90403999556665      1.95231521305011      0.44555828225142
  H   4.40384928853474      1.04525935641142      0.26218560294203
  H   3.48332763991761      0.92347361259358      1.77208867226637
  H   1.60291869745566     -0.16184531619057      0.56176663564215
  H   1.63403801435775      0.66723717524346     -1.63635691252354
  H   2.06957165569767     -1.04648784725583     -1.74963890394308
  H   5.29783073942446     -1.09888284929501      0.29275007512511
  H   3.68496853167214     -6.88035976183141     -0.14273124260712
