25
Coordinates from ORCA-job 22815optt
  C   1.11393395662257      0.04839555434791     -0.09461294821982
  C   2.58628137016483     -0.09087269104587     -0.08961626712942
  C   3.39164826474187     -1.19318784580027     -0.07225923940662
  N   3.04839758312943     -2.51649909901812     -0.06348820575036
  C   4.06702939189721     -3.38731165131146     -0.01140976533880
  C   3.69271222816168     -4.84531764819677      0.00368684718933
  C   5.40741653059819     -2.99335841444557      0.03059519703451
  Cl  6.64875944139858     -4.22354225587291      0.14569807547221
  C   5.81025881916271     -1.64224300710463     -0.02640606726810
  N   7.14350481869328     -1.19858745752791      0.11587446814896
  C   8.16371334998633     -1.45091709174822     -0.74398961861842
  N   9.39249047385299     -1.10787382592153     -0.64492565875097
  C   4.75771885556571     -0.69717091689225     -0.06982444701392
  C   4.66711735921391      0.66524068017778     -0.08460566627516
  O   3.34609279913058      1.05239507395601     -0.09976230354076
  H   0.68407406415780     -0.95307855035695     -0.07917051611347
  H   0.75060693124559      0.56966750895890     -0.98623889447404
  H   0.74893192738107      0.59711990210440      0.77977953137922
  H   2.60938902190653     -4.91856553363394     -0.06658801155419
  H   4.02643468398983     -5.33837731672716      0.92046321795441
  H   4.14643293918703     -5.38778021807859     -0.82945853006871
  H   7.35355365959668     -0.60565919910350      0.91081357754890
  H   7.84610965765451     -2.02444687734801     -1.61340420622885
  H   9.55043358954697     -0.59407035552216      0.22361441251725
  H   5.39495828301408      1.45604123611085     -0.12176498149316
