29
Coordinates from ORCA-job 22826optt
  C   1.13347908518425      0.08638682763598     -0.07668821162911
  C   2.64836266997175     -0.00532741969460      0.01943434145430
  N   3.01755140599852     -0.82240098161836      1.15425546407011
  C   4.26581824829230     -0.99556489502600      1.38451025913263
  O   5.17546205661874     -0.45699156784961      0.48526745910118
  C   6.51254641297262     -0.46277192536893      0.85029437233008
  N   7.03550092546999     -1.38734615491702      1.65312988209019
  C   6.16782892478945     -1.97903376191608      2.44343453111554
  Cl  6.87521641425072     -3.09965922981558      3.61071253259233
  C   4.79418364398795     -1.75901549134551      2.47163589068185
  C   3.82128696776796     -2.38179794608410      3.42183361046881
  N   7.29005740744449      0.05763036549143     -0.18781257479399
  C   8.72692667623527      0.23592344946707     -0.02597385419559
  C   9.06260916652634      1.00337040641966     -1.31884785317397
  N   7.79069189975430      1.55336361724923     -1.80999097884789
  C   6.87810338096024      0.93938762117895     -1.14575549969141
  H   0.82411062083443      0.70123975034057     -0.92535919495864
  H   0.72442499410528      0.51803546260515      0.83827477162553
  H   0.70538009217079     -0.91089279977449     -0.19160927968873
  H   3.07379640523434      1.00464300418037      0.10573100768726
  H   3.04845034919816     -0.41660475366523     -0.91682886232036
  H   4.30850317275131     -2.66622060574914      4.35328087452123
  H   3.34523537101771     -3.27527481351192      3.00024241357644
  H   3.01762726288530     -1.67670584124178      3.63832524831641
  H   9.23087837703144     -0.72234279399331      0.07520939907400
  H   8.91638076815091      0.82181394083849      0.88087639292952
  H   9.46782089538909      0.32401317161266     -2.07707368509353
  H   9.79578472270529      1.79464164845595     -1.16082393334807
  H   5.81598168230080      1.07850171609618     -1.29968452302613
