28
Coordinates from ORCA-job 22834optt
  C   1.02787580149014      0.39600416907524     -0.77232665472696
  C   2.46858786453009      0.19398455387185     -0.34113712380268
  C   3.26916041976269      1.47628240226740     -0.37645961601785
  C   2.65887743424272     -0.67927079513073      0.91252515997738
  C   2.58090219675820     -2.05349556490242      0.20505522042560
  C   2.87810897793033     -3.07556331322583      1.30053853005598
  C   2.10760497105779     -2.37878516536583      2.41944699160317
  N   1.39071168594582     -3.00841384474836      3.40143387090487
  C   0.61573543036241     -2.23445779120611      4.08527096351226
  Cl  -0.28277659034942     -3.01722592838426      5.39878641711022
  N   0.36561070452262     -0.91387666164137      3.99215113064525
  C   0.99254371654175     -0.32305626321673      2.93437100521961
  O   0.70395366528480      1.00243837326839      2.77292347382101
  C   1.83691682884848     -0.98710488297119      2.11528851036953
  S   3.28172030254124     -1.23061123373899     -1.24025354769374
  O   4.72010998401190     -1.08997878862107     -1.18042268674953
  O   2.69188234242433     -1.58835060111124     -2.50904609016783
  H   0.57178480791366      1.12069465574143     -0.09431264333247
  H   0.44213258742866     -0.51969286307504     -0.71919187919175
  H   0.98210547296516      0.77463527808661     -1.79423501866944
  H   2.88392483045772      2.15075246784354      0.39222715793798
  H   3.17960430209867      1.96959361340301     -1.34644299403385
  H   4.32273699729488      1.27995632118865     -0.18012686972109
  H   3.70408242674062     -0.54606094662277      1.22077052312471
  H   1.54687478092886     -2.19455251571899     -0.11824888323066
  H   3.95519425598835     -3.15947201986892      1.48492997903980
  H   2.48581487099492     -4.07089862429996      1.08440790435935
  H   0.07421893128256      1.19552596910371      3.48007716923113
