26
Coordinates from ORCA-job 22836optt
  C   4.07784678912614     -0.77365990774895     -0.09489655057371
  C   2.76479641579159     -0.16613032409112      0.39302593880725
  O   1.93554309162745     -1.13574557912770      1.00860976484075
  C   3.01490992919514      1.07818877975728      1.23214259633027
  C   2.82245268358214      2.29775544667264      0.60490997482171
  C   3.06255005899603      3.53101427611373      1.25796259877299
  O   2.90269995090982      4.64681599892265      0.77096810256289
  N   3.49884090418187      3.44194287624464      2.62360595823728
  C   3.20014248012667      4.60226946836999      3.36358093569290
  N   3.65704966008348      5.04558224932619      4.45266425788132
  C   4.73404842846957      4.47366963545132      5.17647670463574
  N   5.45780596279606      5.24399540562322      5.91543000010030
  C   4.96724644634032      3.05866741980530      5.18454186543837
  N   4.47351818422962      2.10859379819502      4.40077981272811
  C   3.83830639498865      2.21310255596196      3.25959134238694
  C   3.50533953706762      1.04365047746156      2.53005119061820
  Cl  3.86252262888850     -0.47267640252196      3.31914656968796
  H   3.86271583136547     -1.62849296098136     -0.73773005593653
  H   4.68649726501227     -1.10706731336260      0.74554076385374
  H   4.64506500909238     -0.03297418445290     -0.66050909214123
  H   2.19639494937868      0.15964442273312     -0.47935343958757
  H   2.32524592398687     -1.36002624344808      1.86179384648564
  H   2.46130840335600      2.35414159370994     -0.41159139253191
  H   2.43541239558729      5.18478178614446      2.86028281477387
  H   5.09054497569634      6.19152609935524      5.83469882836236
  H   5.63419570012397      2.72343062588633      5.97127666375235
