27
Coordinates from ORCA-job 22868optt
  C   1.17713132668441     -0.23823020960108      0.42178117021863
  C   2.66245327104034     -0.15828134148963      0.27772652133633
  N   3.26621279631837      0.97133415044038      0.58233796751079
  C   4.56209170002730      1.12681131160519      0.26617838614327
  C   5.22002585104762      2.41097645641897      0.67281934975955
  C   5.22564317141751      0.15480432852125     -0.45773440456230
  Cl  6.87971090881870      0.40318279731952     -0.94500487656173
  C   4.64539590942818     -1.10879382400456     -0.77915150174163
  N   5.14597614972668     -2.10336619685438     -1.41859526726130
  N   3.34066632723618     -1.27018626959225     -0.22611167447379
  C   2.77919555019376     -2.54028899496935     -0.09847299695985
  C   2.18290491072767     -2.90760476506809      1.09330290558944
  C   1.31147136374230     -4.01265221088061      1.32485642277478
  O   0.84867233365258     -4.29635694098090      2.44212031281704
  C   0.96471148396087     -4.84132941070495      0.15604353255811
  C   1.52040125658753     -4.70180395045332     -1.05230276629817
  S   2.71700098163778     -3.55262076766229     -1.53873260505198
  H   0.79687173242137      0.78045080588126      0.44054238996400
  H   0.84674292155712     -0.75662823922634      1.32573393404052
  H   0.74585706685246     -0.78653418309357     -0.41963022408196
  H   4.49012622227238      3.02639232453008      1.19419112458301
  H   5.60303116951610      2.95555731452792     -0.19404729392630
  H   6.07253354137624      2.22632865074378      1.33144911143128
  H   6.08278614529806     -1.87376751672237     -1.73183630410740
  H   2.37463221462133     -2.27203436417611      1.95054189130438
  H   0.24632505708689     -5.63351067888187      0.33225568163336
  H   1.27942863675018     -5.38784827562665     -1.85726078663807
