24
Coordinates from ORCA-job 22869optt
  C   1.03152030051896     -0.32143893116545      0.14182188694330
  N   2.39989804860317      0.11137941221629     -0.05164733861424
  C   3.29844426013402     -0.05914566632567      1.02769686387611
  C   4.60292220261199      0.37685177243600      1.01515902883944
  S   5.34955832173504      1.25738484033539     -0.29646378536852
  C   4.15907095928745      0.91338178973028     -1.54294850590698
  C   2.82862120600605      0.43757039740527     -1.29112935958589
  N   1.95393699206442      0.30959494236232     -2.30146375885360
  C   2.35941554283356      0.63698569498525     -3.51908548338525
  N   3.55296746575327      1.06685152172650     -3.87658240286918
  C   4.41770491219578      1.18786097826229     -2.86746021868507
  Cl  5.98787547009638      1.79337970364781     -3.31072832678930
  C   5.22421176904176     -0.03061560265528      2.24036769141533
  C   4.22740683613296     -0.73687814200456      2.98948865617237
  C   3.05540269320712     -0.75800891295338      2.24296051126588
  N   6.49171713366857      0.26308141760332      2.52394766360282
  O   6.81382229088437     -0.25846103061309      3.79404151464515
  H   0.75034593779157     -0.09722314558215      1.16859745234981
  H   0.92486164346833     -1.39678432123766     -0.03177362608305
  H   0.38050305982547      0.20573128924619     -0.54800598772183
  H   1.62480244574250      0.53150213803025     -4.31159205874385
  H   4.38106414055444     -1.16324170994521      3.96683088386217
  H   2.13051950186368     -1.23785065599628      2.52601421280401
  H   7.73640686597911     -0.01090777950843      3.88295448683037
