30
Coordinates from ORCA-job 22864optt
  C   1.07039579829946      0.34552095336573      1.36324086110979
  C   2.50702562712320     -0.08087329071426      1.15750118529757
  O   3.18462302460474      0.96634463065839      0.49243412834076
  C   4.59611976441844      0.84759722225833      0.46397342222238
  C   5.00515078884468      1.33797988731078     -0.92544901629003
  O   6.38735437003384      1.59150280792634     -1.05933718690884
  C   5.31285730054139      1.63701662819734      1.57893444949628
  O   5.54007972821165      2.99853762995850      1.20138323627645
  C   4.68710755560081      1.42691836913387      2.94407271732478
  C   3.51159952338728      2.07102678694269      3.39367189488935
  Cl  2.89193736415805      3.46520531197904      2.52109267166270
  C   2.75652492249982      1.65451743417130      4.50378049537349
  Cl  1.14655770495200      2.31219656149492      4.77432134903932
  C   3.16401135908494      0.70340164154542      5.39322676479954
  S   4.79870914191887      0.11493418480336      5.39297532890123
  C   5.28814731299028      0.35923762315530      3.67482731136773
  N   6.21251765517626     -0.41503262160334      3.19779243095276
  H   0.50892631001004     -0.44360071862831      1.86607622132184
  H   0.59501806105228      0.56236924011610      0.40501388178115
  H   1.03597602041243      1.24345147363926      1.98117864908829
  H   2.56264671401295     -0.99383535033048      0.54726222713381
  H   2.97809131830855     -0.29316793534048      2.12128724747585
  H   4.88431220517186     -0.20161089447907      0.60234399869439
  H   4.41672809307802      2.23677833985099     -1.13798080534989
  H   4.74190694813067      0.58374470426610     -1.66847066834766
  H   6.57622504508383      2.30854208721247     -0.43902495119725
  H   6.30959740018101      1.20347287618820      1.64101233494498
  H   4.71535713308995      3.48562053406001      1.29995025060161
  H   2.48959189433898      0.28309721291065      6.12340193083327
  H   6.49990391528354     -1.10389333004921      3.88650763916428
