27
Coordinates from ORCA-job 2287optt
  Br  1.15202531389000     -0.35599735079299     -0.51060304213859
  C   3.04766667549743     -0.25685626058159     -0.25087016073308
  C   3.72635805805049     -1.39204356319582      0.09584858924389
  C   3.22118976709289     -2.80877021648380      0.33464754813521
  C   2.79515232199472     -3.73371718878985     -0.85248108499112
  C   3.52199164820352     -5.10839300698155     -0.60386597179194
  C   4.77867019979691     -4.67130257460813      0.11799562937701
  C   6.19298248837990     -4.70450953800648     -0.07340166314748
  N   6.67790640475331     -3.44161227571438      0.32050814762601
  C   5.62125050196451     -2.61824556603218      0.70165837367339
  C   5.15277041257377     -1.31815296968556      0.30457873787225
  C   5.81281750339446     -0.11016261940613      0.03762893549927
  C   5.07783528846799      1.00335730787025     -0.34550087115686
  C   3.69262795410876      0.96464579375258     -0.47758813530044
  C   4.50932802330554     -3.45686446266847      0.68449897235351
  C   7.07097580242399     -5.68758927709331     -0.56031157314093
  O   8.30487984858596     -5.52304315759218     -0.71385360337225
  H   2.45594749189884     -2.80899607793995      1.11823499040223
  H   3.18528725252010     -3.30328398416000     -1.77770187472538
  H   1.71178212671670     -3.82919519523229     -0.95657794043658
  H   3.72948935264950     -5.62565355034742     -1.54228617719407
  H   2.88994275536007     -5.76795836172961     -0.00030626646455
  H   7.65574186995229     -3.22351492801851      0.24107034796985
  H   6.88882084524089     -0.04283035745596      0.14096810925193
  H   5.59270846511614      1.93649709614058     -0.54433602724097
  H   3.12756353852667      1.83965295825279     -0.76399779912476
  H   6.59428808953458     -6.64946067350001     -0.81895619044556
