30
Coordinates from ORCA-job 22876optt
  C   0.72358188807327      0.38485427406298      0.49132615385832
  C   2.24244767106674      0.29433066636948      0.42533905241587
  C   2.79079812640628     -0.80946767196205      1.31496712142843
  O   2.30985801530392     -2.04768128312330      0.81782686460364
  C   2.45980666571709     -3.11964142236060      1.72875317343480
  C   2.35289280884350     -4.41088128198292      0.95302980366819
  O   3.48064004844917     -4.66087560601075      0.14784722101556
  C   4.30776035828227     -0.82119812899866      1.35461610877200
  N   4.91103304264763     -0.42007693688823      2.38731231978405
  C   6.33207007363794     -0.45110883677420      2.55273823765103
  N   6.80992270085691     -0.37461789285973      3.76508179629298
  C   7.12863189327248     -0.50637731858011      1.38398406713856
  Cl  8.82935210406034     -0.20072784694483      1.57947502992327
  C   6.66353250122107     -0.74602479534940      0.08545317551104
  S   5.05570174995204     -1.46133375345370     -0.11588747550748
  C   7.36925513195027     -0.55767398055770     -1.10000608892299
  C   7.94719580054251     -0.42939977175484     -2.15974231835340
  H   0.34931384775912      1.17324005146907     -0.16305344073753
  H   0.39107136340755      0.60606991607712      1.50810979426427
  H   0.27074766061623     -0.55791550010565      0.18482061831823
  H   2.69984737721332      1.23388471205045      0.74293317522006
  H   2.57404363278371      0.10189525018490     -0.59688022639687
  H   2.44895563035108     -0.66159101729403      2.34736574938835
  H   1.67619180444200     -3.06443155198837      2.49546195286342
  H   3.43604089819477     -3.06981235548691      2.22572737729542
  H   1.44091323357934     -4.37851637831668      0.34376868128266
  H   2.26276702341612     -5.24357653724396      1.65506322980101
  H   3.87189577815639     -3.81722283128988     -0.12171441025104
  H   6.01600745533306     -0.28003679766671      4.39460299920265
  H   8.47172371446373     -0.32308537322072     -3.07631974296457
