21
Coordinates from ORCA-job 22879optt
  Cl  1.09695283095629     -0.20607554583493     -0.51390972412734
  C   2.79076515629072     -0.03968017508611     -0.14199720799450
  C   3.37415484370704      1.21252553120491     -0.16957891595056
  C   4.75773874461039      1.39891871927304      0.06796168042914
  O   5.33945998647596      2.47658749237831      0.04740609974789
  N   5.53176995122190      0.17858051367957      0.28799872583620
  C   4.85898811715219     -1.02164643740811      0.44575811571970
  Cl  5.68064937557921     -2.31797853862707      1.25298402658288
  C   3.51516567217227     -1.17290814302483      0.19831806605671
  C   6.92643065016606      0.20740225365915      0.12991783002078
  C   7.53616964040660     -0.81469310472272     -0.58484175912191
  C   8.92582233573019     -1.03280800613429     -0.75503838552903
  O   9.45347458436860     -1.93724553843290     -1.38476673330730
  S   10.06430563840641      0.15160337036941      0.01036167018601
  C   9.01440687230787      1.29146905381524      0.77882529330977
  C   7.67116592916042      1.24401689744834      0.78414815867610
  H   2.81066624170474      2.09852886647856     -0.41688335197886
  H   3.04611321096426     -2.13359986234685      0.34021679438572
  H   6.91633235556391     -1.54859439099544     -1.08449411694971
  H   9.53694473274201      2.08702999746066      1.29389537274597
  H   7.12152313031286      2.00856704684606      1.30871836126234
