25
Coordinates from ORCA-job 22873optt
  Cl  1.11883637504551      0.14148705916006     -0.37700165486983
  C   2.86578939346567      0.11348541896040     -0.08054438646060
  N   3.39858042581971     -1.08508096273405      0.00857709397276
  C   4.73188775156114     -1.10724324857291      0.23186354324091
  C   5.52800099313068      0.02668978689327      0.36796736007481
  C   4.91017989857532      1.31609282169455      0.26673744774073
  C   3.50602993776241      1.32528722843145      0.02805321469961
  N   5.56668490871122      2.47178297209099      0.38693098161527
  N   6.89239824150002      2.45813524284415      0.63108340658742
  C   7.51525239609645      1.28573960747592      0.73037914191204
  C   6.93424134120234      0.03530414911654      0.60630078700753
  C   7.68928080350832     -1.24243492167336      0.72618814864275
  C   7.84757130515152     -2.17064474608601     -0.51326414977969
  C   9.24642077525354     -2.54725862273953      0.01459635745853
  C   9.22975759501118     -1.24259545350366      0.83695070971539
  H   5.17647821322012     -2.09312529357653      0.31108676083148
  H   2.97969185893408      2.26363585735404     -0.05864043981129
  H   8.57909044519613      1.37028209836178      0.93484686043361
  H   7.27622794040379     -1.85115548122646      1.54206068549868
  H   7.90944825301018     -1.56640814042078     -1.41962060118384
  H   7.11909074458596     -2.96675689965927     -0.66126336149120
  H   10.04986383154797     -2.68583422784107     -0.70889019604253
  H   9.19804161440058     -3.42358300385145      0.66272005929545
  H   9.65407375916024     -0.42262785986309      0.25621768597728
  H   9.67508119774582     -1.24417338063496      1.83166454493474
