27
Coordinates from ORCA-job 22875optt
  C   0.76340537785014     -0.14385836383961     -0.50366428955033
  C   2.23291136388773      0.00007510606014     -0.09123638676999
  C   3.16219665265133      0.02524198892808     -1.26635459270298
  N   4.04884155618535     -0.89700731176932     -1.45333159042101
  O   4.88789518695551     -0.57791077252036     -2.53776282235209
  C   4.57096359249581      0.56829499532969     -3.18695732174416
  N   5.16714726938508      1.00305101081216     -4.21125830774622
  S   3.22390235726626      1.36575944473937     -2.39164757425987
  C   2.66917999805283      1.14817434993689      0.79154734597537
  C   2.25278091456253      2.49863808935317      0.67243695125923
  Cl  0.86214335283778      2.93446532525930     -0.29582743216225
  C   2.80884135035729      3.58108420261470      1.42509866994196
  N   2.49381268755694      4.84130883195544      1.44614156044807
  N   3.83344327060856      3.19506123800944      2.28069698415111
  C   4.38516287377662      1.92140687227691      2.30772838399596
  C   3.81403317040257      0.90174232975922      1.61538403382205
  N   4.32941231565811     -0.42482261340727      1.73333816474408
  H   0.58931050412180     -1.17265825510421     -0.82565031830358
  H   0.48773446601091      0.52077138095401     -1.31800355287184
  H   0.11705312050202      0.07895163545551      0.34609371856285
  H   2.49252504393869     -0.90997641476920      0.45066787395588
  H   5.91574392001928      0.36418276051402     -4.47257233780324
  H   1.73394493408801      5.01602030307791      0.79926005809607
  H   4.31374659224461      3.96782034050638      2.70864666140287
  H   5.24189333017165      1.78213985097362      2.95209645622025
  H   5.13844537492280     -0.42722886507917      2.34015742043855
  H   4.60952942348974     -0.79972746002688      0.83097224367323
