24
Coordinates from ORCA-job 22882optt
  Cl  1.23898482360800     -0.36748881483000      1.05305776296030
  C   2.84209263790708     -0.35299689391013      0.34431666559271
  C   3.38175264522565      0.81048627657841     -0.14133641955722
  N   4.59643341806335      0.87791686638289     -0.74807998927334
  C   5.27322513471633     -0.29652993392390     -0.82101994406419
  C   4.82583312984687     -1.49850818430963     -0.35765456289795
  C   3.53426187208272     -1.60364734748549      0.26320373787887
  C   3.02361682062105     -2.81641337474924      0.72443758239357
  C   2.61193268621503     -3.89325263826941      1.11451863288074
  C   2.60040962866806      2.10012657130350     -0.10243356470189
  O   3.46631707448746      3.22908223042481      0.14109068476316
  C   3.19898119552002      4.26629704276662     -0.66624851392877
  O   3.66250525457122      5.36025156911189     -0.49411154963435
  C   2.25666071478154      3.83981340309953     -1.73913907830244
  C   2.75790354835676      2.68233654587756     -2.57207281598155
  C   1.87847549855937      2.42895354456996     -1.40368804071015
  H   6.24930445009772     -0.23984820945090     -1.29496048155671
  H   5.43578079993013     -2.38687452242063     -0.45909435218408
  H   2.24084803797775     -4.82525544011707      1.46137400885768
  H   1.88202563923045      2.08013210224817      0.71462939672723
  H   1.59728377298394      4.58257399299204     -2.15960215752038
  H   3.79678591245569      2.39307600997170     -2.47966546325167
  H   2.31502081889906      2.58936015814847     -3.55376189166199
  H   0.87656448519471      2.04840904599085     -1.53575964682756
