32
Coordinates from ORCA-job 22886optt
  C   1.29489514004882      1.26575828994877      4.53983145215136
  C   2.80420810429080      1.23134370329023      4.33717929479633
  C   3.21095969281307      1.88970638180837      3.03438035352679
  O   4.60330771410194      1.84092661631950      2.90929649514821
  C   5.05748377434382      2.38932541568604      1.68859403881367
  C   6.57323660210381      2.33823423072000      1.63847685649812
  O   7.12206614306881      3.26625794490564      2.57218706609469
  C   7.81142627430190      4.32711832109270      1.90576876016276
  C   7.16134904327465      5.66601004641119      2.22651119530563
  C   7.77306158761877      3.94544721617518      0.46029639607900
  C   7.10985370632416      2.76232603835215      0.29405459656665
  C   7.00814927085642      2.11373819226044     -0.93226302742615
  Cl  6.21051427421554      0.55119205013414     -0.99725071637721
  C   7.56784674534652      2.59339866208507     -2.13554401748728
  C   8.30139278156517      3.77334134284866     -2.29485696638562
  O   8.82008584517532      4.22983980114899     -3.30878590024381
  S   8.56871447381994      4.84299802508263     -0.79138958283225
  H   1.00689095207691      0.78363621133646      5.47456602328021
  H   0.77920879880288      0.75123736695326      3.72623877756864
  H   0.92711630283187      2.29346597815585      4.56723558304448
  H   3.16591372288603      0.20094900905319      4.33197413218503
  H   3.31375488447386      1.74212355696787      5.15680897405101
  H   2.86336012329240      2.93423138513722      3.01512021376586
  H   2.73197222459523      1.37526018788700      2.18682124963449
  H   4.74426051919118      3.43824073512406      1.60110634555442
  H   4.63825754480252      1.82601619628846      0.84740450303296
  H   6.89450164673058      1.32924478817383      1.91859221069313
  H   8.84586487065401      4.34520035468916      2.28068743569679
  H   6.12579050843831      5.66346490381771      1.88280647893570
  H   7.69506347711717      6.46929426160737      1.71423746598018
  H   7.18212546814539      5.85318264425019      3.30164584807079
  H   7.44836778269205      2.00949014228858     -3.03873153588462
