33
Coordinates from ORCA-job 22898optt
  C   1.11583368260430     -0.06305917107068     -0.11396892933039
  C   2.64273210586604     -0.09321623941039     -0.13484742381449
  C   3.15031534166107      0.24675817034732     -1.53365538411268
  O   3.13665004015295      0.87713833506008      0.79790270039195
  C   3.13806302496621     -1.45738328824454      0.34043386623538
  C   4.65760953918021     -1.63655101863421      0.41417779904014
  C   5.02385130337441     -3.06191574974314      0.68958184234544
  N   4.73708965038381     -3.93308814225331     -0.36653621024911
  C   5.05214759180001     -5.20729739608238     -0.17723959620549
  O   4.78118492069177     -6.07664508045736     -1.22387993582897
  C   4.07858905374048     -5.51564709912297     -2.30315891408419
  C   3.88632211166259     -6.54709033768637     -3.32610524986185
  C   3.71583312843741     -7.36413717250132     -4.18694799144389
  C   5.62767610877895     -5.76536162377402      0.93976441055801
  C   5.93742149880516     -4.88261163694253      2.03027559242019
  C   5.60243256416685     -3.54189650824797      1.84183861541086
  Cl  5.94897192696915     -2.43886651818585      3.17479473081630
  H   0.74601039371433      0.92680320877401     -0.39982852678016
  H   0.75436243764123     -0.29354293359194      0.88868920571363
  H   0.70356197122940     -0.79431641657125     -0.81144136970820
  H   2.70551577580629      1.18464854970776     -1.88275004934175
  H   2.88701891614274     -0.54096273144258     -2.24175041363356
  H   4.23299018138866      0.35852408668739     -1.52822045270343
  H   2.86716217113042      1.74915878415049      0.49326326847152
  H   2.73755670652623     -2.22303657669078     -0.33014330924823
  H   2.71789829924621     -1.64252302005864      1.33359894576857
  H   5.06818321044913     -0.96463461641412      1.16556662995452
  H   5.09565995062190     -1.36981188523821     -0.55506958034916
  H   4.62115855954542     -4.66757833554671     -2.72785097721831
  H   3.10716500165109     -5.12980837462513     -1.97866077690212
  H   3.57020011139065     -8.09874242410489     -4.94087144707455
  H   5.83149102659359     -6.82593889276048      0.97000453465088
  H   6.36934169368120     -5.22636794532520      2.95703439611314
