26
Coordinates from ORCA-job 22895optt
  C   1.13098974085350     -0.66984664297579      0.16076544420216
  C   2.56596799027206     -0.12966486916300     -0.00990485735419
  C   3.59546264370206     -1.21990723680515      0.30240773329977
  N   2.82834646208757      0.46986012250989     -1.29621103316338
  C   2.52514867608882     -0.20923704408260     -2.46432830757355
  C   2.29316826387396     -1.48088044136150     -2.82985757653405
  N   2.14302602004042     -1.47133281013466     -4.21103462650642
  N   1.84066566315376     -2.57813430783508     -5.01059757984099
  N   1.70785762976815     -2.28855252024749     -6.31746524110600
  C   1.81942017713619     -1.04348600157749     -6.85939386626054
  O   1.68247388195291     -0.83917592427093     -8.06951024972514
  C   2.11029455882995      0.09981251961750     -5.95671293398206
  Cl  2.26230215593167      1.71298201643396     -6.53469159239500
  C   2.25909521357000     -0.20726567857324     -4.65150347826593
  O   2.51624602757643      0.60054577586313     -3.58005390460202
  C   2.70344871416129      0.95557992640611      1.03792575742157
  O   2.77761000637642      2.12883736095538      0.80804011685812
  H   0.95940828243274     -1.50246436165730     -0.51882081473918
  H   0.40519295604845      0.11145384815378     -0.06849334396479
  H   0.96807831992398     -1.01899491156969      1.18240220635867
  H   3.50853141497009     -2.03258526602213     -0.41705148479451
  H   3.43525915689232     -1.62752438349293      1.30235148038962
  H   4.60397732449030     -0.81260824881740      0.23348482659138
  H   2.57662522159819      1.45057329550419     -1.33874298662691
  H   2.22683766895410     -2.39889930432742     -2.27734996613572
  H   2.69656582931460      0.57791508746985      2.08034627844915
