32
Coordinates from ORCA-job 22894optt
  C   1.33922453757633     -0.76329443882780     -0.78813800277231
  C   2.57586561711060     -0.11284325442991     -0.15555279689011
  C   2.98050051814100      1.18145377378618     -0.80924781722149
  C   2.48156544835441      2.40321021707246     -0.30074094309966
  C   2.83856566749553      3.60142891075270     -0.85305927541300
  C   3.73812016464248      3.67506885143080     -1.97117321854053
  C   3.94098489572567      5.03000862530348     -2.31002391223607
  C   3.20628591476274      5.84872657272061     -1.45896781756543
  C   2.46458577710471      4.99977071748980     -0.48781529759762
  C   1.07379816357151      5.32865443250782      0.01590133160761
  C   2.23497358256785      5.38980202510684      0.95857982892188
  C   4.21480165359232      2.44266269039506     -2.46573881347734
  Cl  5.32647581332094      2.52107574599527     -3.83251004075977
  C   3.85284405798608      1.21848201100540     -1.92424284174984
  C   4.42041056384476     -0.05553444520156     -2.49440570458464
  N   5.72002670413754     -0.37510199625138     -1.87316657841162
  H   1.06258472316346     -1.69323903203478     -0.28067374841284
  H   1.51653092578100     -0.98680469026909     -1.84203486244966
  H   0.48998943319660     -0.07866698647983     -0.74122749773357
  H   3.40696976536481     -0.82427191262863     -0.16195341978850
  H   2.35757719371248      0.08435565975868      0.89915055384063
  H   1.81168639862426      2.37610643661556      0.55781106512000
  H   4.57975089216908      5.36625639235648     -3.11488680432017
  H   3.15321548062784      6.92817633706434     -1.47433669352138
  H   0.37970659392633      4.50176108974010      0.11168352549078
  H   0.64091145202808      6.26113922317989     -0.32583604575307
  H   2.33693764119286      4.60344317693243      1.69765622253176
  H   2.59725034525452      6.36357477479249      1.26456216758267
  H   4.49919366141355      0.04592875033856     -3.58075193777413
  H   3.74379163379301     -0.88750889659337     -2.29620965307260
  H   6.28293752312387      0.46968734298766     -1.87149510041767
  H   6.21793725669372     -1.05250810461629     -2.44115587153230
