21
Coordinates from ORCA-job 22908optt
  Cl  1.80852331606731      1.92177124949178     -0.03047762288948
  C   3.03386845655635      0.70067707553888      0.02461907384963
  C   4.15225880426184      0.91971384488977      0.74445280703767
  N   5.13191982286399     -0.01517998563925      0.82242785985720
  C   5.05085225819237     -1.24565442713359      0.17264071239079
  C   3.89146733548978     -1.46979468551533     -0.58446080968714
  N   4.00824986102707     -2.67163446044992     -1.29588349177264
  C   3.82705067744820     -3.71560136296618     -0.60954919805491
  N   4.62143893457727     -4.80685736303649     -0.87744761239979
  C   6.02615719600388     -4.62905140765510     -0.64078297377526
  O   6.72040696177924     -5.64130218668463     -0.77454759815012
  C   6.57345907188504     -3.38693603208079     -0.15825065410295
  C   6.17568131021980     -2.10032392746203      0.27332793467351
  C   2.81288041410618     -0.54582646073786     -0.73336621775316
  O   1.79757483383867     -0.74343155568308     -1.40774503868612
  H   4.31466400806582      1.83980942436960      1.28818471305312
  H   5.96335738567046      0.18512712677921      1.35001031805974
  H   3.19086499477760     -3.73659622334781      0.28639944061531
  H   4.32341223609913     -5.72479376038397     -0.58332630012947
  H   7.62823613460486     -3.56495568405996      0.01926276329416
  H   6.99567598646505     -1.60315919823321      0.79151189456994
