32
Coordinates from ORCA-job 22905optt
  C   1.33370892483390      0.45500932489516     -0.35253309171332
  C   2.71876730093820      0.00613968516653      0.12047056413037
  C   3.07220817171235      0.52143955106813      1.54316969288290
  N   3.03198194500903      1.98906419071132      1.63797344388131
  C   2.19770108509196     -0.06062845977110      2.65440430084338
  C   2.73275809479452     -1.38424901790813      3.20912036171535
  N   1.65624323257256     -2.22509260581268      3.69569210376277
  C   1.45703061013482     -2.56690575941249      4.97302034993713
  O   2.14533281207727     -2.24907272745944      5.92688341968832
  C   3.00220614553515     -1.47102027085806     -0.11596918611492
  C   4.28531398624234     -1.77061421972210     -0.62611132169900
  N   4.81240771460896     -2.97573959442107     -0.87761292454548
  C   4.10577216893642     -4.04519730192138     -0.76743512898508
  Cl  4.84989441716231     -5.60423454485446     -1.05317470215832
  S   2.38906674824491     -4.14917718967610     -0.44400251215199
  C   2.04145202680004     -2.46363260628749      0.14629838944848
  N   0.89305427131566     -2.32145476408608      0.75611373312871
  H   1.26458580503712      1.54528217694740     -0.37538907190054
  H   0.53757002178751      0.05338722278506      0.26982013230430
  H   1.16278440154508      0.08711575454858     -1.36546540610798
  H   3.43665987834987      0.52498508149302     -0.52891643035916
  H   4.11064013748640      0.22611497415792      1.73021324643942
  H   2.06482186322130      2.29697104655635      1.64235926032476
  H   3.45385298903756      2.39857145292479      0.80997368538807
  H   1.19158634827896     -0.23282692491421      2.27081267711140
  H   2.12575893024245      0.66479814963126      3.46810568130820
  H   3.42034659880234     -1.21462147491677      4.03625803987115
  H   3.26227089128986     -1.92774338842594      2.42626191154478
  H   1.01496346140721     -2.53090495950619      2.97277731629859
  H   0.56321404513673     -3.20360418909894      5.09512484780953
  H   4.96222559669463     -0.94009040528781     -0.79933286490399
  H   0.36481937567201     -3.19106820654483      0.72508948282058
