27
Coordinates from ORCA-job 22912optt
  C   1.08031017470299     -0.96924139264326     -0.08653844020868
  C   2.57768372521142     -0.82879120279732     -0.09632616385691
  C   3.08500395978478      0.43127614929437     -0.39217694725623
  C   4.46925182329414      0.58206383693308     -0.47184751429005
  Cl  5.10282035996564      2.15881426222663     -0.95074307562871
  N   5.32824770745209     -0.33953660903221     -0.21796527400428
  C   4.85761741439905     -1.58903489405723      0.17535010240854
  C   5.86405034868698     -2.39632130904355      0.63106124775318
  O   7.16021847734695     -1.98355896817605      0.55716398412355
  N   5.72549480008827     -3.69353657712378      1.10737877408795
  C   6.09726913854276     -4.68113476494266      0.16987953716240
  O   7.43243402072787     -4.75900837987240     -0.10431473397511
  C   5.19425944764608     -5.50263390090318     -0.37232844234073
  N   3.84839867756932     -5.57516002133484     -0.07368497659766
  C   2.98947093819573     -4.63914600681613      0.23172409824837
  C   2.80901964519240     -3.21342021397006      0.31130483010887
  C   3.43620327722988     -1.94657102305653      0.12435269401616
  H   0.61210038868074     -0.00734118101493     -0.29282267592497
  H   0.71582720763658     -1.32523686726265      0.88086182389928
  H   0.74524293183609     -1.68902177924170     -0.83729634259002
  H   2.43277179231819      1.26720850221556     -0.59752048285010
  H   7.10207428458400     -1.09941168661979      0.14652919004982
  H   4.77628493694353     -3.85774267201951      1.42148271296476
  H   7.82705246412857     -3.91133436675634      0.14162468979862
  H   5.57147660826616     -6.29990104700195     -1.00536044964307
  H   2.01958450785648     -5.09458039777896      0.44845540035756
  H   1.74983094171322     -3.07569748920457      0.46775643418743
