22
Coordinates from ORCA-job 22917optt
  C   1.01210734903784     -0.12221201061157     -0.19423560405162
  C   2.51372018727533     -0.12545947020316     -0.10602702182624
  C   3.22156436242030      1.05567238403740     -0.08840111510557
  Cl  2.39339489156961      2.56553496002261      0.15523650386058
  N   4.61831614135714      1.07945298846161      0.04464772477958
  C   5.40273102748538      2.07973605726351     -0.48455528008403
  O   4.99930649432176      3.00462439766611     -1.15838474443603
  C   5.32303585982795     -0.07978144629051      0.58778963239421
  O   6.47604258093488      0.06443249949403      0.98800327804529
  C   4.57910427570156     -1.26500862096964      0.49617762600287
  Cl  5.38750935098559     -2.72005263152220      1.00140659462428
  C   3.23364572549958     -1.32102510321772      0.06674135691800
  N   2.60751049300298     -2.57735590300637     -0.08513899525970
  C   2.00828232320362     -3.02838348331154     -1.23621657087222
  N   1.74252005374150     -2.40783578654164     -2.31243386070950
  H   0.66253706764187      0.24699000155029     -1.16140158055922
  H   0.59375552918858      0.53273633829250      0.57124711500778
  H   0.61711129131380     -1.12507858695689     -0.05161013878401
  H   6.45273173031952      1.92905684267582     -0.21823262662486
  H   2.96323100991515     -3.30172342886175      0.51983561313718
  H   1.70745886889394     -4.07365076203691     -1.15073800027037
  H   2.09138338636192     -1.44966923593396     -2.27370990618637
