23
Coordinates from ORCA-job 22914optt
  C   0.87011167342462     -0.12557710104474     -0.16781754414089
  C   2.36100793515051     -0.05672817786202     -0.02485187585967
  C   3.08892018194262      1.15417192980967      0.03015713793464
  Cl  2.12032029074585      2.63423412036145     -0.00708070571981
  C   4.47846137060110      1.35436592068591      0.08049657160403
  C   5.26409887286976      0.17346006291317      0.12226732996410
  N   6.59005727399991     -0.24494378676672     -0.01508007309899
  C   6.52860577381681     -1.57125301825706     -0.08054868847076
  N   7.62105099662351     -2.42299916422537     -0.20425530999067
  N   5.25256416870853     -2.06988680726793      0.03699361113097
  C   4.29420846414823     -3.09027719204907     -0.29515262073944
  N   4.64975359179421     -4.44406838033060     -0.07025330735802
  N   3.02793865550285     -2.57778480421129     -0.18899352753201
  C   3.16228159709470     -1.23007945921854      0.01816150784907
  C   4.50051776714995     -0.95661551415701      0.17842029987182
  H   0.51535244746152      0.42253935233664     -1.04460728253793
  H   0.35375071420771      0.29578550508179      0.69990265076686
  H   0.57565035518504     -1.17030154445249     -0.26970267968539
  H   4.87814352047446      2.35693341804470      0.05012294197013
  H   7.35492046211709     -3.31540051623438     -0.60257142433657
  H   8.37223617949819     -1.98270774219204     -0.71617339312036
  H   4.28297233861480     -4.77502767041127      0.82478510206570
  H   4.24007536886789     -5.02883943055276     -0.78621872056682
