23
Coordinates from ORCA-job 22925optt
  C   1.03024009777159      0.06900451479708     -0.05903590165483
  C   2.50794384677241     -0.10567135093425     -0.05863822941343
  C   3.23811140747965     -1.27241101280523     -0.05821499404189
  Cl  2.37119403002271     -2.79726268676866     -0.05793549695866
  C   4.62649663818345     -1.31724753695744     -0.05802903359234
  C   5.39198743480907     -0.12210134239954     -0.05826848051902
  C   6.81736054875361     -0.14440012038138     -0.05813432304882
  O   7.51399256171522     -1.16774775893143     -0.05786070625330
  C   4.69019330906177      1.12069265064935     -0.05867832310534
  N   5.16988218970494      2.35490198520766     -0.05897320838974
  C   4.05082879933306      3.15256993280204     -0.05931222073760
  C   3.58862045947313      4.45025639387402     -0.05979004583369
  N   2.22275029754085      4.34731868789392     -0.05996670362254
  N   1.74773908155344      3.07850694260904     -0.05959563464092
  C   2.86965019418254      2.37869501020749     -0.05922393407714
  N   3.27645433556117      1.06827080087034     -0.05881407620354
  H   0.53958432574276     -0.90042585161299     -0.05896047881815
  H   0.69680730498835      0.63482655300799     -0.93446832590945
  H   0.69636515772975      0.63517793369856      0.81600101420905
  H   5.15038213227449     -2.26192798212828     -0.05769629821534
  H   7.29450891739646      0.84941369802699     -0.05830039186666
  H   4.07317226508409      5.41110906994415     -0.06005025023837
  H   1.56173466486548      5.10045146933055     -0.06005395706828
