25
Coordinates from ORCA-job 22923optt
  Cl  1.16259119313397      0.00316030503226     -0.20985372866735
  C   2.90747877263538      0.04433901187652     -0.01573641098889
  N   3.48411852055353      1.26803386921239     -0.08965639502901
  C   4.84853524317507      1.28359080335582     -0.07259479965331
  C   5.61041851107467      0.17935054275969      0.17927733583607
  C   7.08677315462478     -0.13897262282324      0.12744110331527
  C   7.11425906598661     -1.65158953669065     -0.22974331427092
  N   5.78870103913215     -2.13319487953397      0.16343193159085
  C   4.94857892919181     -1.04333973451542      0.45223448998813
  C   3.56853919113102     -1.13178725088124      0.19649288385622
  O   3.02343316751597     -2.38863372712632      0.08499234332926
  C   3.86722122212889     -3.42188021464213      0.55318977728435
  C   3.58063387022462     -3.94238267135115      1.93445532325348
  C   3.20385401984625     -4.73363965606653      0.70808877908852
  C   5.32527106021864     -3.38667815590160      0.13942181019059
  O   5.99486720764516     -4.39805555248237     -0.09723583907541
  H   5.30709948254804      2.24868739094886     -0.27076811036698
  H   7.54969654998712      0.00581377391032      1.10946789376178
  H   7.63981457498868      0.45573954365660     -0.59909722655709
  H   7.89343907627867     -2.20755545639025      0.28989788695281
  H   7.24128036310575     -1.80786943209129     -1.30392352987664
  H   2.78786227583592     -3.43647254718847      2.46738036842004
  H   4.42055407620491     -4.28143200534054      2.52537595308369
  H   2.15745941865606     -4.76288147926995      0.43983361889248
  H   3.80252001417619     -5.59735031845729      0.45662785564204
