27
Coordinates from ORCA-job 22933optt
  C   3.46803007318299     -1.06428245939047      0.57376122617678
  C   2.64066123059468      0.10101096199586      0.02768011416635
  O   2.98221498296511      0.28622283968739     -1.34740930564457
  C   1.14097515735157     -0.25045129205986      0.11194101131011
  N   0.82128017768038     -1.36884350139312     -0.78566595894035
  C   2.91864220825537      1.36184433933348      0.79848300444762
  C   2.47339412634251      2.65590771872577      0.52839133374079
  Cl  1.54482073302740      2.97130093690258     -0.91640971455422
  C   2.74736462188686      3.73700866503742      1.35028339292778
  N   2.28725742016678      5.03657343362357      1.11822886046244
  C   3.50825705856575      3.44530248832121      2.51265509677279
  S   4.09673139693675      4.49704261834571      3.76343216548923
  C   4.96611216521327      3.02621638040263      4.54577336428182
  O   5.60977458699270      3.19081807911158      5.55883532224503
  N   4.72883720589772      1.92020300089998      3.82728523345401
  C   3.96770327826680      2.17652414854544      2.76279488021644
  O   3.68284580953704      1.13499956234594      1.94019000283385
  H   3.28803222483097     -1.94172879209866     -0.05071186027301
  H   3.22025296979215     -1.28941025570992      1.61074381666820
  H   4.52658603779007     -0.81781414820266      0.52205351474233
  H   2.42627073681545     -0.33867494926013     -1.83494705346480
  H   0.56807891574289      0.61438521357457     -0.21737794998888
  H   0.89372694520863     -0.44658309034851      1.16026682670531
  H   -0.16974067144591     -1.40108989174659     -0.98574837193272
  H   1.07407372810672     -2.25619065397864     -0.36880888982606
  H   2.08128957065779      5.22363209031783      0.14735196000111
  H   2.90252730963751      5.73607655701759      1.51192797798263
