29
Coordinates from ORCA-job 22931optt
  Cl  1.01701451317673      0.03103784029896     -0.60737256500447
  C   2.73217519452625      0.04291751759074     -0.21038624586764
  C   3.45713734363234      1.23060609253309     -0.14299745727171
  C   4.84709648511482      1.10986138618348      0.05568339819239
  C   5.79333407596742      2.28116259319735      0.05884172325591
  C   5.17297663999134      3.52094190908372     -0.56144961145635
  C   3.81290604599212      3.72202020614936      0.07671775755247
  C   2.83694447095668      2.61277896432858     -0.30066562499017
  C   2.12929006813604      2.90213026606667     -1.65550658601191
  C   0.87494120962030      3.24871869521440     -0.83492016670510
  N   1.55777290265145      2.89263709097854      0.43073039500268
  N   5.45479679965598     -0.09202898280214      0.24207448700873
  C   4.73737326721705     -1.17952203544522      0.21799375971477
  C   3.33290244844234     -1.23533317871511     -0.02391667501698
  C   2.68759538153629     -2.50392291246135     -0.05903507808551
  O   3.26944547558629     -3.59788408202223      0.12211074745763
  H   6.70238036302397      1.97551820428561     -0.46394306417956
  H   6.09809271559177      2.51368981454316      1.08910939962099
  H   5.05696894865946      3.38000797510777     -1.64204470592578
  H   5.81191279664531      4.39491558170071     -0.41301533316508
  H   3.35469696842472      4.67520652214528     -0.20131358883066
  H   3.91352166124001      3.72162596506863      1.16670050811409
  H   2.01269941555928      2.02300997527102     -2.28419943634281
  H   2.57651431088773      3.71238192074293     -2.23285750571087
  H   0.00394868302796      2.63393464849247     -1.06406179229664
  H   0.58150038692580      4.30088134593873     -0.85753231196719
  H   1.16952662917875      2.05427946277944      0.84213994812303
  H   5.24189590233722     -2.12755192052922      0.37439258062577
  H   1.60563889629451     -2.49702086572543     -0.26027695583999
