27
Coordinates from ORCA-job 2294optt
  Br  1.42123884008440     -0.93264563822635      2.62650826041383
  C   3.16636117733459     -0.51375371579470      0.78981367077812
  C   4.08537948554519     -1.46782816918941      0.50419118650829
  C   4.12692980528894     -2.95757163904888      0.70922411864160
  C   4.99671193053284     -3.36743443816191     -0.50223773091930
  C   6.13065768306758     -2.36018740035471     -0.19105815615008
  C   6.49231972995222     -2.85672531155024      1.22764838758491
  O   7.09065916825846     -1.87454546509298      2.05736312011601
  C   6.31649920925568     -1.56399934392274      3.12966830597430
  O   6.67840392303162     -0.77394167431820      3.94635301448120
  C   5.03736826621632     -2.37878204163218      3.11198582484563
  C   5.12391162447088     -3.24856196844306      1.86489755808858
  C   5.33962056433324     -1.08063303002944     -0.03805092547933
  C   5.66504012151320      0.21541148634240     -0.28457866456582
  C   4.69282490052507      1.24912477827239     -0.01118654429315
  O   4.83489161276589      2.45127226418628     -0.21381544879122
  N   3.48851950831271      0.77062640076628      0.52915209247166
  H   3.15718354026729     -3.43380963701497      0.82375076014775
  H   4.51233542428044     -3.17092027406760     -1.45768097180751
  H   5.33537740664642     -4.40654393083656     -0.46256678981404
  H   6.97608766252713     -2.31823386595929     -0.87452955925149
  H   7.18785453225329     -3.69508932458454      1.16167833170396
  H   4.17833217285551     -1.70297501395040      3.10706819835265
  H   4.99580176692879     -2.95063871398963      4.03878340018822
  H   5.10800788611183     -4.31040657441625      2.11116371419460
  H   6.62277467414247      0.52814352353061     -0.67624787884119
  H   2.81490738349781      1.49264871748616      0.75170272542178
