28
Coordinates from ORCA-job 22940optt
  C   0.74507871987241     -0.25883937111271     -0.73268282338364
  C   1.76618570450763     -0.14415778928428      0.39120840956484
  O   1.11365662049738     -0.20661044355186      1.64563099836417
  C   2.92572839996726     -1.17610580293638      0.34866242763001
  C   3.86981897649458     -1.01269392898162     -0.86004638399055
  C   3.35028275216194     -1.73723350859492     -2.10722865689340
  N   3.22399257955557     -3.12937885076457     -1.78806678568690
  C   2.58630301834640     -3.51524126894297     -0.59996502863132
  C   2.20170418226204     -4.88801054427028     -0.50384943446549
  Cl  2.42462106617298     -5.90562324226171     -1.91937065827091
  C   1.62440916729014     -5.55896446345616      0.58216203710435
  O   1.28006834619594     -6.73254722311048      0.65621310118017
  S   1.32064527056933     -4.57725840212678      2.07928805974281
  C   1.99133000499994     -3.01572973059674      1.72211496757233
  C   2.47145594836022     -2.62128220744027      0.46425333784827
  C   4.16317300731579      0.38612659105534     -1.17598676730422
  N   4.39108188209524      1.47744657109390     -1.44822812115251
  H   -0.12206089625330      0.34743372173479     -0.47026774219618
  H   0.42695907279583     -1.29622852780210     -0.86250230041716
  H   1.14220069165416      0.11521500693625     -1.67706547074373
  H   2.21532571867245      0.85222649096250      0.35793784550465
  H   0.85432308685177     -1.13215269804938      1.78230390803141
  H   3.51505697285667     -0.94287934095071      1.24226734581958
  H   4.82059729339014     -1.48548360383078     -0.59948001246820
  H   4.07432371051170     -1.62370080584598     -2.91599696956856
  H   2.41059501900084     -1.28031475557428     -2.43260162215695
  H   3.02428829230342     -3.73436278658579     -2.56866627927634
  H   2.20985539155143     -2.41364908571196      2.59496261824346
