20
Coordinates from ORCA-job 22942optt
  Cl  1.44081649610127      0.21727108725685      0.92280256582500
  C   3.13306025995211      0.09609358695551      0.44327547277495
  C   3.61697571862237     -1.14253586247893      0.12413111188381
  C   4.98611056057876     -1.29206885343454     -0.26966480255952
  C   5.53704700045851     -2.52971681777885     -0.60983391621566
  N   5.99756633916696     -3.55990431778419     -0.89412641164151
  C   5.73046712748843     -0.06401704783682     -0.29077729062298
  C   7.06816053864223      0.33397431059974     -0.60067156941696
  C   7.11837674097968      1.67568750437948     -0.41544666514699
  C   8.18589244560597      2.70731977645318     -0.55595049787816
  C   9.46186617701623      2.15128191696736     -0.99670271703215
  C   10.51166548345666      1.70280039662315     -1.35914987508175
  O   5.90769000761534      2.16285064504630     -0.00885894705210
  C   5.06013864383556      1.09703358647450      0.06577175714832
  N   3.79334073153083      1.27028469835337      0.43790980634113
  H   2.96631286618082     -2.00308952174043      0.17014932421184
  H   7.88889770856450     -0.28893995577630     -0.91765624288576
  H   8.33439110939882      3.22179863948189      0.39993503721268
  H   7.86872190041852      3.47596120296241     -1.26922698720782
  H   11.43850214438632      1.29491502527632     -1.68190915265636
