25
Coordinates from ORCA-job 2295optt
  Br  1.76441118652342     -0.11753530648836      1.38967163602851
  C   3.44330499743943      0.00027011699126      0.51106837489630
  C   4.03864121402615      1.25848782170041      0.26573880290596
  C   3.83034100706868      2.58548909155744      0.95809282280201
  C   4.59167083103797      3.53595195388211      0.01656225610161
  C   5.87185781637794      2.68107135321416     -0.01460328633185
  C   6.19195380963605      2.58672101037390      1.48942537184681
  O   6.76363399257100      3.78846601944600      2.02612229114661
  C   5.91098659059935      4.39347551312346      2.86893544735685
  O   6.14340329040003      5.41722548219341      3.43491715461594
  O   4.77662993482214      3.69596802148031      2.99138059417481
  C   4.79464347703578      2.52167638826096      2.15632959406690
  C   5.31107720974051      1.31343459579908     -0.33065731460247
  C   5.93097103893512      0.18362255507048     -0.78248238769563
  N   5.19028715988457     -1.00689725174985     -0.74849474218521
  C   3.99263778294120     -1.19517392064155     -0.01835617699429
  O   3.54988268011984     -2.34427318966948      0.07060518243835
  H   2.80978442068780      2.84447129627362      1.22882323819716
  H   4.74860425229127      4.53293046924635      0.43540747866386
  H   4.11881208184759      3.61128123057351     -0.96072249867976
  H   6.70786764669416      3.03259868119642     -0.61662149435354
  H   6.86005529810301      1.75963282576510      1.72046801314307
  H   4.61185503030003      1.65804983091684      2.79091695946228
  H   6.91036841392644      0.14539062084681     -1.23586392475343
  H   5.63331883699042     -1.87933520936244     -0.98366339225087
