24
Coordinates from ORCA-job 22965optt
  C   1.63256043649301     -0.18404189475214     -0.05732570608181
  N   2.99776873475630      0.03715857018511     -0.52430762484209
  C   3.82499445214439     -1.12939077491751     -0.24159287592980
  C   5.31621597447746     -0.86450881923507     -0.57613645697717
  O   6.05811943267615     -2.05432875908266     -0.75066616601741
  C   5.43788175981952     -0.20635644085707      0.82145988225406
  C   4.32026152412083     -1.15435093492646      1.22906300097073
  O   4.03354142601689     -1.78728943290809      2.20672999321417
  C   4.76189042663802      1.14865924967688      0.70552634424271
  C   3.58575656538757      1.25095688460819     -0.00091561183335
  C   2.94411066317383      2.46618846789088     -0.25591067882230
  C   3.41159039542727      3.70960860760507      0.21646989156701
  Cl  2.42814489491179      5.10962496438671     -0.16209861558666
  C   4.56711677365273      3.98212127054020      0.95486567531684
  O   5.00015229551331      5.04399884363549      1.38738053554169
  S   5.63243271595274      2.52510723242591      1.32882017059583
  H   1.24104336079595     -1.09096451120933     -0.52233020434562
  H   1.00307403577523      0.65279937817360     -0.34826894754103
  H   1.57968973280328     -0.29353199347992      1.03485629758310
  H   3.37538467337262     -2.03272190727586     -0.65424074999352
  H   5.50832180891565     -0.21319842383315     -1.42481397180874
  H   5.96985734255421     -2.60147844338763      0.03799169235736
  H   6.39098524262080     -0.19064956912179      1.34619256718684
  H   2.05510533200040      2.46958843585864     -0.86974844105085
