31
Coordinates from ORCA-job 22962optt
  C   1.01751891739578      0.01537802250639      0.04076485499274
  C   2.50379011847691      0.03879823127193     -0.02844373324817
  C   3.39875215133343      1.07181688312562     -0.11603450434373
  N   4.68679616414586      0.60903922644271     -0.15545172992745
  C   4.57781055426020     -0.71256252736930     -0.08953588312595
  N   3.27666952783672     -1.09156055570720     -0.01324279745106
  C   5.65631701806816     -1.68590800186188     -0.07887273326766
  C   6.93534084753200     -1.22318906274983     -0.13504147447173
  N   8.02701990518869     -2.01272892619683     -0.14771082251623
  C   9.33596657290441     -1.41546177299687      0.01855822055989
  C   9.65653770507177     -1.07878318746387      1.47001413589622
  N   9.81918958096861     -2.29683889401720      2.25588944861790
  C   7.89458774695305     -3.41001882736572     -0.00385507888308
  C   6.57121483217273     -3.91804379465482     -0.05337932104585
  Cl  6.43594658991741     -5.65921297215229      0.02263182137669
  C   5.39665421243097     -3.15093126833607     -0.02388047362999
  N   4.14745406919096     -3.57874906611172      0.04544517859242
  H   0.63525187972692      1.03589275366922      0.01412217939942
  H   0.66026838344811     -0.45503986265438      0.96086706135677
  H   0.57908555494945     -0.53140384535468     -0.79838230561291
  H   3.17227550879807      2.12740992189433     -0.15277602900429
  H   3.08300121079853     -2.10705452424759      0.03849863942779
  H   7.11489576899797     -0.15436445340330     -0.16474700612998
  H   9.37709165592317     -0.50274465916698     -0.58014785908977
  H   10.07964838245331     -2.11623677500137     -0.36894682865161
  H   8.85687064567940     -0.42352090622241      1.84058052845825
  H   10.58912306897568     -0.50425278523843      1.49422684934238
  H   9.07981891317210     -2.95494119360620      2.00675710582682
  H   9.72973599739061     -2.10097556683045      3.24540750969721
  H   8.73259294703663     -3.98924955222591     -0.37866307501790
  H   4.13277356880219     -4.59256205797486      0.08334812187287
