26
Coordinates from ORCA-job 2297optt
  Br  0.89970129186460     -0.51212007063781      1.26277854559735
  C   3.14335055958667     -0.28928151822888     -0.09645263905410
  C   3.78170864015826      0.93717756261103     -0.14751523684585
  C   3.06232212426236      2.21518059734182     -0.12010639387969
  C   3.70885259144190      3.38547295534265      0.09468407919540
  C   5.16508527664110      3.53789272238380      0.33120931368782
  C   5.85963832256216      2.38514780170544     -0.40492407680394
  C   5.20458818101825      1.03141859784158     -0.20359284988218
  C   5.98809236616235     -0.10576574449838     -0.17321777653141
  C   5.32740687255247     -1.33206026436855     -0.11571142306376
  C   3.92498918324871     -1.44326351274269     -0.09180090899428
  N   3.56685810105297     -2.78991209838653     -0.05994495465999
  C   4.68426673566331     -3.43979688178386     -0.05481503174460
  N   5.79328501314156     -2.62907188964179     -0.08597620893361
  O   2.84259972508697      4.42612700557079      0.13915898432341
  C   1.60184480765085      3.88873578338763     -0.06187595380588
  C   1.67002561529494      2.54985553191377     -0.22256492683131
  H   5.38258063250728      3.49138533216870      1.40511770428737
  H   5.52967122360277      4.49994724079350     -0.03476508978597
  H   6.91272697856258      2.33065088847449     -0.12125990295090
  H   5.82640997102893      2.61374619246376     -1.47695124127565
  H   7.06981302902812     -0.03920884811140     -0.21226280292981
  H   4.78242103544925     -4.51536244802129     -0.02857399031140
  H   6.75156050860980     -2.92705828222361     -0.08341424890454
  H   0.78559042853266      4.58954165431948     -0.05325505206254
  H   0.85861078528905      1.85262169232634     -0.34796791783994
