26
Coordinates from ORCA-job 22970optt
  C   3.53003086873247     -0.01884860097341     -1.20491272612042
  C   2.42518868605087      0.17093224027023     -0.17318481645867
  C   2.88027662110016      0.99217088618118      1.00396021615110
  O   3.20507473681690      2.36566655339465      0.60918988112926
  C   2.31193900374898      2.87157390359778      1.51993342228825
  N   2.05076799789813      4.06984150726548      1.77691243740688
  C   1.82261214223275      1.52230700589391      1.99283538954678
  C   1.97201824138198      1.12192129969777      3.42601527945678
  C   2.49760557107587      1.97078312703154      4.34640457347570
  O   2.68669984144002      1.60247534167199      5.66057957517097
  C   2.48235583990484      0.28089725726737      6.08230608820045
  N   2.79758530949863     -0.00624384624135      7.29768190222685
  C   1.92847413397432     -0.59071630699195      5.11793818483815
  Cl  1.62278800386843     -2.23327755367389      5.59736031563422
  C   1.64230284166453     -0.19616199376142      3.79968219410296
  H   3.18009281399043     -0.59343822634879     -2.06347870624605
  H   4.37976311806257     -0.54668313302515     -0.76819373172501
  H   3.88379754679321      0.94916403246031     -1.56214375870889
  H   2.08125728571423     -0.79377095947376      0.21057583690991
  H   1.56244641275844      0.66640027261406     -0.62834768681354
  H   3.73786076078441      0.54789214755913      1.51235079972041
  H   2.63542448752773      4.68456683970130      1.21026488695891
  H   0.80696284071056      1.32348578447789      1.63679396942391
  H   2.74802123148074      3.00399793119624      4.16627756454155
  H   3.16624273070218      0.83294822645801      7.73784486771792
  H   1.20941093208658     -0.89288373624912      3.09435404117158
