31
Coordinates from ORCA-job 22972optt
  C   3.07771374385924      0.23400823564897     -1.89996171361064
  C   2.51627859962229     -0.94456574734192     -1.11158385137959
  C   3.17003801144712     -1.10613864101762      0.25587666234830
  C   2.51599118414473     -2.21419258138513      1.13700690918576
  N   3.59530583932860     -3.16486766267088      1.48537585231931
  C   4.76300830097704     -2.28556734382967      1.55924341831909
  C   4.67425818296768     -1.48990943390337      0.24782833453020
  C   5.07968472591014     -2.42535847741316     -0.89510285769234
  C   4.38352897026100     -3.75831116968324     -0.78381214853730
  C   3.77429707743661     -4.09614212739700      0.40681313828611
  N   2.98090520611735     -5.24041322929258      0.49579355346097
  C   3.00292465548058     -6.26983127563328     -0.48228384294370
  O   2.43114688478798     -7.33443961645255     -0.19444621241652
  C   3.66501874675828     -5.94140705381496     -1.68201083335666
  C   4.29483372167435     -4.68100302917612     -1.82795468660200
  Cl  5.23818641956584     -4.39760086902354     -3.28770675506881
  H   2.60328686186819      0.32629366281638     -2.87845647767056
  H   4.15176847896750      0.12537015682276     -2.05970841570419
  H   2.91955431529480      1.17078795009158     -1.35885885232396
  H   2.62797940556882     -1.87542174024421     -1.67501973574508
  H   1.44070052561410     -0.79972074807672     -0.96966048243495
  H   3.08089761405026     -0.14812163036150      0.78202253389163
  H   1.72225071169859     -2.75227497579737      0.61793843029862
  H   2.10021301664559     -1.78399260382918      2.05338909874077
  H   5.67590947889710     -2.87304330614298      1.65298176926755
  H   4.65835344272193     -1.62663137233939      2.42794378030043
  H   5.30821682392534     -0.60008049038582      0.24777651812587
  H   6.16761825604633     -2.56187728612838     -0.87393126543183
  H   4.85637366262896     -1.98042658461430     -1.86691917769918
  H   2.75303059675223     -5.56692205567269      1.42326890399070
  H   3.66472653898134     -6.66719895375205     -2.47984159444797
