35
Coordinates from ORCA-job 22984optt
  C   0.97727169745422     -0.69164138230527     -0.67837466799131
  C   2.43522464422378     -1.08894614466065     -0.87146790234754
  C   3.17554388534268     -0.12975952617524     -1.78929835821148
  N   4.56581430185075     -0.51043786611102     -1.94557686231128
  C   5.29852062908769      0.37244893852294     -2.84592020950509
  C   6.80466938924138      0.09044608127234     -2.88828215284848
  C   7.06286343139122     -1.35504143112078     -3.29403013342554
  C   7.44773121879826      1.11044508904114     -3.86522202397913
  C   7.69563768934363      2.30161200449869     -2.99244075201810
  C   7.66992681988937      1.92678937497113     -1.62514130523789
  C   7.43075939264787      0.44704144636498     -1.51594374929032
  C   7.85887975664324      2.89248453240621     -0.66825175359299
  Cl  7.84496041584090      2.45420789289604      1.03548849255139
  N   8.07192162865531      4.17955272930122     -0.89879510354821
  N   8.06851005552650      4.48761589914639     -2.24572628390238
  C   7.90677912449034      3.64303940577382     -3.35294854052099
  O   7.95909685078543      4.14610148618928     -4.48913028539243
  H   0.45851071293851     -1.37932912529961     -0.00909621039075
  H   0.44335894167006     -0.68465835594649     -1.63109745745723
  H   0.90320731657357      0.31037293053122     -0.25120665444424
  H   2.49042842836823     -2.09999939924314     -1.28873728881645
  H   2.95459449561921     -1.11775520657759      0.08868577687350
  H   3.15086029477604      0.87581416892564     -1.35806245071826
  H   2.64338099124755     -0.06674124858105     -2.75548245026004
  H   4.61160448181253     -1.46277109350435     -2.29143088387779
  H   5.15661370966064      1.39947478266568     -2.49760548139893
  H   4.89855990323969      0.32174511856901     -3.87258670009688
  H   6.57374403850797     -1.58858984285696     -4.24541829785091
  H   6.70163788328731     -2.05643829108510     -2.53707623818071
  H   8.13383114726839     -1.52806474439251     -3.41709585926942
  H   6.80099237609781      1.32697774205303     -4.72155413141153
  H   8.37782468363028      0.68972325136266     -4.27571791897975
  H   6.78124489695321      0.15970790009844     -0.68780250233492
  H   8.37949667689646     -0.09351401432702     -1.39710402308048
  H   8.24399809023983      5.45508689759689     -2.45554963673337
