25
Coordinates from ORCA-job 22990optt
  C   0.99168845533037      0.12071494822763      0.09182967795762
  C   2.47096348844220     -0.02627770909333     -0.15103398970960
  O   3.10019054583613      1.19726245262431      0.23942542573562
  C   4.45379518325786      1.17763487416542      0.40649751148939
  C   5.23044721940241      0.08113826173761      0.49319856531962
  C   4.58611297247521     -1.29584684291334      0.42248099376448
  C   4.81637000778780     -2.00471152071228     -0.93268512640487
  N   6.09650343686625     -2.28580896373701     -1.18370659627303
  O   3.87727851325392     -2.27855830664478     -1.66950355930568
  C   3.09667125907230     -1.17988062946440      0.62342731222778
  O   2.45122004982741     -1.91039450952761      1.32867739277779
  C   6.69078407592825      0.11191369672853      0.76316543656492
  O   7.36571147055628     -0.97192118458563      0.69181423650152
  C   7.22304981413897      1.33747567393814      1.20726135630208
  Cl  8.86517332491230      1.29572478471964      1.81642923034361
  C   6.57466856093827      2.55150675692162      1.27673438138734
  S   5.04847114736633      2.82816577647520      0.47834027427032
  H   0.61297231397324      0.98505526459454     -0.45274049490807
  H   0.79815050937739      0.25112901095806      1.15583703505697
  H   0.47487749115060     -0.77686268603258     -0.24466725982363
  H   2.69034592072393     -0.21232461537954     -1.20773223337593
  H   5.01271315754468     -1.92808404065106      1.20316083652156
  H   6.80732216186927     -1.88720350637358     -0.52470362988132
  H   6.31435952848345     -2.67468647451670     -2.08583407637108
  H   6.99115939148505      3.39783948854113      1.79932729983258
