21
Coordinates from ORCA-job 22999optt
  Cl  1.03293974004057      0.31813417986723      0.18971815969572
  C   2.77189960552582      0.16026771579705      0.10102291388818
  C   3.57251520505060      1.30316320257017      0.17516260430463
  C   4.95138346272986      1.20774659062677      0.11546567413014
  C   5.61103974924990     -0.03645995489808     -0.02051211960122
  C   7.01890343335934     -0.10104960666442     -0.08839511386402
  N   8.17451250569109     -0.11716021634827     -0.14264330147880
  C   4.80421766980700     -1.21588549465262     -0.09404897301479
  N   5.20114823287468     -2.46919111360267     -0.23472472777856
  N   4.05172016958140     -3.19297657885059     -0.33140566927925
  C   2.92466560568405     -2.42425461959315     -0.15177299006055
  C   1.59702102247291     -3.03781815293229     -0.22993519129973
  C   1.28466973670326     -4.08899850526706     -1.21319002068142
  O   1.51559954144270     -4.42174678381147      0.14601387594479
  C   3.35913511242074     -1.11505801272988     -0.02766937431157
  H   3.10031514375514      2.27122141251219      0.27865071790332
  H   5.54915239837995      2.10830073083227      0.16797798739259
  H   4.09119961810606     -4.17138452036742     -0.09675437124827
  H   0.77710171282722     -2.42981161340096      0.12934148870832
  H   2.06576355951128     -4.39458027960661     -1.90178795330197
  H   0.26309677478637     -4.22645837948015     -1.55451361604752
