32
Coordinates from ORCA-job 23001optt
  C   2.96993891859647     -1.23958588901212      0.15602599126179
  C   2.09791352256214     -0.00933852200292      0.42540365083998
  C   1.34188315112981     -0.19907015808020      1.74721516682531
  C   2.87526563150943      1.27825840800764      0.43619949014785
  C   2.53504992010590      2.43359444827367     -0.24844489744285
  C   3.09906856649086      3.68546011422714      0.07601923694335
  C   3.90599459666271      3.90010265850817      1.19520474820848
  Cl  4.38888323114167      5.49684665275627      1.68398545577664
  S   3.98821139627302      2.64599583689904      2.36292121538757
  O   2.78812629894760      2.52999664200166      3.15587728636347
  O   5.24270986557152      2.68153734226377      3.07731027817568
  N   4.00526149238111      1.32666259666593      1.33837792379825
  C   5.29213879794982      1.16661744914535      0.64817588959652
  C   1.49008366975652      2.39490647005709     -1.32116970491178
  C   1.74225504655998      3.09009055723512     -2.62457676443081
  C   1.72025347330506      1.58850449181103     -2.56622638004718
  H   2.36526631824287     -2.15088176811036      0.14962406881391
  H   3.72421628466782     -1.34376341603970      0.93976167439055
  H   3.48170610033920     -1.15729386910039     -0.80547161090057
  H   1.36289478126527      0.06420897224007     -0.37967765651896
  H   2.04977570997770     -0.22423377332443      2.57773675329819
  H   0.76898285479266     -1.13240360757648      1.74203581688198
  H   0.66403363581453      0.63553794213964      1.92780890344120
  H   2.87902298978875      4.53582634088204     -0.55810084615081
  H   6.10131993062808      1.23488334388248      1.37211596279220
  H   5.42216013888342      1.93501831952676     -0.12224495714743
  H   5.30254300286096      0.18421420167784      0.17876250310110
  H   0.45946038251969      2.42416171655507     -0.97954619239086
  H   2.70358133378199      3.57070575688557     -2.74348955081148
  H   0.91604282036189      3.59239688577986     -3.10958340984237
  H   2.66926400328180      1.07243116562131     -2.63014326079928
  H   0.88269213384965      1.07061269020400     -3.01488678464966
