27
Coordinates from ORCA-job 23008optt
  C   1.47742312296633      0.71348027856693     -1.23168341825932
  C   2.76879601581864      0.42011937216991     -0.53920262117684
  N   3.54442036405948      1.46768529591917     -0.23237877286028
  C   4.70326772307039      1.19930579964378      0.31547915223882
  Cl  5.69799723486427      2.59118329173282      0.72250862353030
  N   5.22503564967070      0.02444325692992      0.58915323903579
  C   4.46557040864277     -1.03182116801899      0.29405461161764
  C   5.01280922501920     -2.39485095416405      0.57456934430757
  C   3.18039300486428     -0.90292241866465     -0.27252968321979
  N   2.48882297497241     -2.02711981475974     -0.63878010593783
  C   1.25652143904618     -2.23536643620804     -0.21329934585247
  S   0.49386119995841     -3.57114531913074     -1.12477443269366
  C   -1.08108629113933     -3.72087748513564     -0.38876670411426
  C   -1.52085613571468     -2.91588192158326      0.65285382178236
  C   -0.74589032992325     -1.92457035961213      1.21997392494968
  O   -1.22394376567580     -1.16328138233853      2.27282452678998
  C   0.56836886346710     -1.60248627992622      0.81119616481885
  H   1.54924201520598      1.67677426200846     -1.73339586813030
  H   0.65197631938280      0.74127950318225     -0.51670928438331
  H   1.24683745803148     -0.08015726881762     -1.94456095138501
  H   6.01037204056922     -2.31296953407612      1.00039435547510
  H   5.03396788052419     -2.98381383732290     -0.34452794653647
  H   4.35102155951744     -2.93021633322922      1.25789520731041
  H   -1.70518255562593     -4.48598950248546     -0.82515214043370
  H   -2.52353409944429     -3.08143570947549      1.03901873524265
  H   -2.11111912857096     -1.46761010189500      2.48117785207614
  H   1.08590780644292     -0.82575523330939      1.36166171580795
