30
Coordinates from ORCA-job 23006optt
  C   1.73063510326775     -0.66219079520850      1.03684590412309
  C   2.45766668635246     -0.01483197978627     -0.13845616857566
  C   1.63174802932258      0.02617194065067     -1.42278196005971
  N   3.02648694796613      1.29499130182442      0.19592914619295
  C   2.28929867491073      2.32815115782041      0.70262578174001
  N   1.01965181734641      2.46147847973513      0.83646752474545
  C   4.35865830692037      1.51099258982642     -0.20245964663892
  C   4.97201334460996      2.73723630997751     -0.52076957366721
  C   6.31213171119854      2.65379363021561     -0.14141087980810
  C   6.47748286888200      1.38397950589246      0.47200219244726
  O   5.29211554317393      0.71451478218913      0.51972740904671
  C   7.68358016258343      0.94604586384408      0.93064623743721
  N   7.86483516571453     -0.32437972079197      1.51342572285242
  C   8.77209399767362      1.85198639504411      0.76756550927019
  C   8.49933492370723      3.06595868023967      0.16422488730178
  Cl  9.87525854308133      4.17467870299726     -0.02734934733602
  N   7.35962523554611      3.51577430484284     -0.29969424693483
  H   1.49946846700742     -1.70001112619910      0.78893612893452
  H   0.79785167040046     -0.16262097270592      1.29594124248191
  H   2.37275087180898     -0.64996306704845      1.91822825457522
  H   3.33457855405856     -0.63006293001193     -0.34236727530170
  H   0.72865384842561      0.62746242168452     -1.31464678858283
  H   1.33681475146850     -0.98408878712071     -1.71423972830768
  H   2.23647760993491      0.45745316482291     -2.22186703279906
  H   2.92588546424163      3.15674319014574      1.00809725990147
  H   0.51724446421628      1.65233336119039      0.48653740147285
  H   4.49221706910350      3.55752649530002     -1.02880013965416
  H   6.98245860054027     -0.72760421774236      1.80078668781179
  H   8.50276492213051     -0.29248621449710      2.29816941914803
  H   9.77421664440615      1.58796753286899      1.06968607818298
