29
Coordinates from ORCA-job 23003optt
  C   1.02054652911695      0.84222092391772      0.02440545846799
  C   2.47668081937491      0.43592209009521     -0.01403030383197
  C   3.46579161781024      1.07497119624414      0.98590801709356
  C   4.20898013173995     -0.27037906778500      1.06381709795636
  N   5.34941022191563     -0.33701693462693      0.15698977698451
  C   2.91247138716035     -0.96080400311792      0.52476641390872
  N   3.14799613055944     -2.01582779096096     -0.39008996021851
  C   2.38401994174075     -3.04753403669438     -0.56764543476154
  O   3.03345862431750     -3.95205930271978     -1.45396106188530
  C   2.55692023084084     -5.20671771452345     -1.66351859490099
  N   3.45228059220778     -5.92209933551446     -2.48526835132666
  C   1.36250921864969     -5.63585781475238     -1.19711298954966
  C   0.56735135527853     -4.74021851744946     -0.44512210801236
  C   1.11488340552614     -3.47138440506131     -0.14787044342807
  Cl  0.08758929520497     -2.40601580102777      0.79422852385800
  H   0.89232071309485      1.88842686840288     -0.27069498855957
  H   0.61448423505926      0.71973371128654      1.03196815357266
  H   0.42403562678234      0.21883059278412     -0.64350368895228
  H   2.86548417882110      0.52692679109419     -1.03145656093126
  H   2.96901406907467      1.31977755241503      1.92755520220572
  H   4.05266825055038      1.93687900174041      0.65974948459913
  H   4.53016501314461     -0.59682300700653      2.05523790653906
  H   5.15375105406809      0.24337478628159     -0.65324785754754
  H   5.34604551234188     -1.28476521011025     -0.22238505294799
  H   2.28637867463533     -1.21599086018925      1.38550221342511
  H   4.40917323655180     -5.71372951636983     -2.22029471180905
  H   3.29007495753140     -6.91724425617088     -2.41512125518997
  H   1.03816506803658     -6.64586969271092     -1.41185008115086
  H   -0.41065009113602     -5.01072624747032     -0.07895480360724
