34
Coordinates from ORCA-job 23005opt
  C   0.90994108637498      1.14374857030375     -0.47789076795322
  C   2.23148406677477      0.44991115971127     -0.13075864321962
  C   1.95886002413552     -0.99960002044968      0.28968567597672
  C   3.21146915253654      0.50674731273153     -1.33758615775572
  N   2.75830521671236     -0.19034734047459     -2.51232086091698
  C   3.12207670738279     -1.53886196487631     -2.65485823691293
  C   2.72004950401939     -2.28450468113119     -3.73089779700985
  N   3.01791182598668     -3.67803337187400     -3.76161901371763
  C   2.07121402179006     -1.61344182309589     -4.77211522805436
  Cl  1.19842940727784     -2.59130419526139     -5.97959771800571
  C   1.83640180428686     -0.21581245898977     -4.74052974617106
  C   1.39810149942132      0.52654005159767     -5.95881150617815
  N   -0.04155451328547      0.88331722981466     -5.92885410938741
  C   2.15672017121488      0.53350855090507     -3.56189174630467
  N   1.96569317419789      1.80886071760221     -3.36168058570973
  C   2.88217093746664      1.15391817851661      0.98186596714196
  C   3.43689759739309      1.72370522385889      1.88212607474599
  H   0.45616981530181      0.64123869404451     -1.33259517042911
  H   1.08369957275074      2.17744214651261     -0.76954324131690
  H   0.23093355501203      1.10504690532171      0.37713794667041
  H   1.47162705545540     -1.52726670602743     -0.53028626091826
  H   1.31162729542019     -1.02210200569797      1.16866924681893
  H   2.88875522138675     -1.51819683217051      0.53090717955449
  H   4.16311592340632      0.06851682511238     -1.01778532105508
  H   3.37108805237909      1.55156533099145     -1.59850321777491
  H   3.78280741797719     -1.93804152271824     -1.89808499297595
  H   2.60063218470743     -4.15051333369176     -2.96920840254500
  H   2.65492237427570     -4.09719911824521     -4.60731282474361
  H   1.64366002725386     -0.07377830603917     -6.84083357109569
  H   1.95856092122824      1.46509283544947     -6.03923060338501
  H   -0.55920464824749      0.05503353160542     -5.65256987142345
  H   -0.35888374367911      1.13284280445483     -6.86111257304500
  H   1.44736572753757      2.19067887316803     -4.14483858638660
  H   3.92495156414809      2.23428873904107      2.67592466348317
