30
Coordinates from ORCA-job 23011optt
  C   1.10324696768964     -1.14774320170436     -0.47723580396949
  C   2.58529379503010     -0.79965414571479     -0.40519507964917
  C   3.02875735294202      0.10702194236759     -1.54569651579301
  C   4.51640706073090      0.45236728094003     -1.48724305942448
  C   4.94150526392106      1.29465083901149     -2.66685386799459
  C   4.78938665587861      2.66348412908081     -2.62894818389313
  Cl  4.14574613417258      3.47135422365514     -1.22438108944610
  S   5.17352555410075      3.80063503976916     -3.88844194626722
  C   5.69883272973918      2.66020905187996     -5.08302595546109
  C   6.13055382862175      2.83793105668541     -6.37866904272286
  N   6.23841241035365      4.06934467422824     -7.04241769773063
  C   6.68462289151287      4.30689966776811     -8.31600832290183
  N   7.11171385366112      3.49271144036984     -9.19244498262256
  N   6.44738293333317      1.65323658774827     -6.96929261700939
  C   6.21975190617002      0.70178834324949     -6.05292308778553
  C   5.74583958928705      1.24403460819502     -4.84194728523952
  N   5.40259090988918      0.58721549070645     -3.71592369334140
  H   0.79635466419538     -1.79308807591280      0.34798584738629
  H   0.87293676067056     -1.66306762098737     -1.41185193590822
  H   0.49264399131023     -0.24289822661249     -0.44212807578624
  H   3.18157623813381     -1.71723775450456     -0.42274348821474
  H   2.80263717460392     -0.30957460211713      0.54918060434251
  H   2.44189324907521      1.03094899628918     -1.52705590206487
  H   2.82441200793096     -0.37754199362764     -2.50513212488164
  H   5.10246181110761     -0.46717417241709     -1.53392139396018
  H   4.73852472815660      0.94989368647069     -0.54105345882256
  H   5.93226215887153      4.87281308815548     -6.52115074358532
  H   6.64657335678326      5.37269779686251     -8.55455316487583
  H   7.07893562777444      2.54262593823998     -8.81932249220975
  H   6.38921839435273     -0.34388408807466     -6.26360544016736
