28
Coordinates from ORCA-job 23016optt
  C   2.42366194029252     -0.49701447715113      0.93281846319495
  C   2.30051654207267      0.10675959870670     -0.45553175400447
  O   0.95141457882770      0.52399198903941     -0.69740797402263
  C   3.15381915384837      1.36582303977205     -0.66741387844166
  N   2.79203153466665      2.42035857270640      0.29687252653567
  C   4.64796205359445      1.12341993743309     -0.64890706890549
  C   5.55353772551462      2.17023148947572     -0.62162317523867
  O   5.14043841767357      3.45375028763557     -0.47613292201089
  C   6.94908500649044      1.98545494565395     -0.72572270070411
  N   7.92153836262759      2.94383043783267     -0.63832145630912
  C   9.03548175235766      2.21880377580103     -0.69645521390847
  N   10.29360345667180      2.82040263391614     -0.60925136280961
  N   8.93016689921237      0.88402902654819     -0.81249307828364
  C   7.58210648636813      0.70470148245711     -0.83686759240556
  C   6.87101589735056     -0.47622062823585     -0.92112422202918
  Cl  7.62546480439263     -2.02279746681735     -1.06382404360191
  S   5.14300464175769     -0.51508631347867     -1.09289817112384
  H   1.85707773162424     -1.43003551673711      0.98967761923061
  H   2.01860315761288      0.19026503658683      1.67748894410878
  H   3.46446815649309     -0.71601101033124      1.16880883001518
  H   2.58086462935583     -0.63281353320082     -1.21079567253004
  H   0.36796497066417     -0.21014251994351     -0.48867337655067
  H   2.84871107666237      1.75298657126449     -1.65078777414187
  H   3.10438058236041      2.15072315302048      1.22457232214380
  H   1.78296615671257      2.52628284584693      0.31155482067840
  H   4.19295815052808      3.44095345298793     -0.23727722004256
  H   10.26722490799784      3.77618240511539     -0.93195527432637
  H   10.99793122626897      2.27217078409561     -1.08032959451660
