22
Coordinates from ORCA-job 23012optt
  C   3.22092199743047      0.86446561621716     -0.68338401810971
  C   2.41053142304866     -0.29034031960606     -0.10051110690985
  C   3.04649105813350     -0.92291433437133      1.12543425565543
  C   2.23022818644163     -1.13594498268107      2.21833246499189
  C   4.45838602688829     -1.18607750393067      1.16307300076992
  C   5.23832729275752     -0.87343165039211      2.32766266762983
  O   4.67186951788061     -0.28396901772108      3.41689533087830
  C   6.59434639586704     -1.05494234922082      2.34872564710225
  N   7.31960522021077     -1.52626258000861      1.29840723125533
  C   6.62899211984682     -1.83629550178803      0.22741655218260
  Cl  7.58604936217903     -2.48205660950948     -1.10520001034596
  C   5.25733940973082     -1.71085572051013      0.08779826163337
  Cl  4.47637342156236     -2.32596355414133     -1.34136706912347
  H   2.69518866187400      1.32888448388384     -1.52126834759654
  H   4.19204048776387      0.52128465215629     -1.04127023379368
  H   3.39943749524207      1.62581605929241      0.07917918515954
  H   2.23269988229284     -1.03709069609992     -0.87704448964967
  H   1.42647413028819      0.07571469886121      0.20361954003849
  H   1.20003047259628     -0.80322459470907      2.20695270238366
  H   2.53424759475040     -1.76328415423476      3.04734412096914
  H   3.71620185709978     -0.20818754776913      3.24417942247210
  H   7.14521798611499     -0.76932439371728      3.23702489240701
