31
Coordinates from ORCA-job 23017opt
  C   0.99663147265589      0.21667769662264      0.00848758766398
  C   2.47165606490853      0.21626301836231      0.23109557868623
  C   3.10066016060376     -0.27229137076391      1.30036705300813
  Cl  2.27763477078958     -0.99493503996374      2.66815741006538
  N   4.46906972664163     -0.30951207672079      1.42329470571716
  C   5.20909425339550      0.51692544319024      0.51189063792464
  N   4.66522444867245      0.84026260589580     -0.68547375831589
  C   3.34694736087813      0.74346046761572     -0.88990771908252
  O   2.77432287249502      1.05769492301895     -1.94636688257456
  C   6.69023247604177      0.31002429967915      0.56786244093567
  N   7.35443191293029      0.76539393632873      1.80296360091719
  C   7.16150381589906     -1.16114102511001      0.26925063579340
  C   6.30377963767958     -1.80285322075628     -0.82456817605033
  C   8.64419309745984     -1.12354166750203     -0.15419047544153
  N   9.21745095101416     -2.46558151868245     -0.25780248854039
  C   7.08361738431394     -1.96487559800582      1.49803633244995
  N   7.08787912433871     -2.57773434239609      2.47077782183970
  H   0.44828244545584     -0.10194485036125      0.89385232603680
  H   0.74292462100327     -0.43760544745804     -0.82870301669861
  H   0.67165002103094      1.21653424567339     -0.28272110923776
  H   4.81235422351425     -0.35937117389879      2.37134197334053
  H   7.08286419025460      0.90373685480548     -0.26096470338355
  H   7.09871606283432      0.16910956304825      2.58541638713089
  H   6.99380528774836      1.69010380093548      2.01547105302330
  H   6.24364215329763     -1.11474621918206     -1.66803590911106
  H   5.28815409210199     -1.97020486878437     -0.47011393686752
  H   6.75004583068612     -2.74596274109166     -1.13723991666395
  H   9.17823080375226     -0.46831871960616      0.53931713695746
  H   8.66767882775489     -0.66604594794550     -1.14559364018976
  H   9.26722432688168     -2.89298451351634      0.66143166103714
  H   10.16309758296566     -2.41653651343082     -0.61533261037014
