29
Coordinates from ORCA-job 23027opt
  C   2.94002215278074      2.60092331976671      0.26940883769049
  C   2.96534294163145      2.39203852024420     -1.22055060642488
  O   2.58485711651235      3.23416552183651     -1.99957757566065
  C   3.52024325788682      1.06399425637445     -1.71493569570919
  O   3.52763981181279      1.03799311101111     -3.12123813343082
  C   4.88649129634450      0.85367075883588     -1.09790075630009
  N   5.73435406097499      1.90663223114734     -1.22668224601209
  C   6.92912251662125      1.78873057049354     -0.61558180618323
  C   7.85020896693130      2.97018404891667     -0.76302931098596
  C   7.30570161308506      0.68947741888320      0.12254413800265
  C   6.42231196349714     -0.41718289471475      0.27529828517563
  Cl  7.22404997512802     -2.08456822250093      0.24303384447244
  C   5.18893609203192     -0.29871303169815     -0.41692425128223
  O   4.25674671571778     -1.32416785996091     -0.38898211449069
  C   3.97789878340812     -1.80418032134600      0.91105273396792
  C   2.88660213443243     -2.77520199246575      0.83482268268081
  C   1.99585593549721     -3.57515100577127      0.79192849761712
  H   2.28614135126075      3.43364154297182      0.51827211286346
  H   3.96368713209639      2.81872215626228      0.58257100096044
  H   2.62848419623655      1.69101294967082      0.78451758671910
  H   2.85034937006044      0.27504056229726     -1.35882780610922
  H   3.46852049340275      1.96022257532386     -3.40507693429334
  H   8.04712590551560      3.15677757237461     -1.82052385105864
  H   8.79721691476561      2.80405631726587     -0.24895808309887
  H   7.38201705288791      3.87138229527620     -0.35988039972242
  H   8.28012471097042      0.66329305760929      0.59642376954849
  H   3.68501468985105     -0.97348445441352      1.56494641501365
  H   4.86019893800611     -2.27739431598205      1.34993677182724
  H   1.20873391065208     -4.28691468770836      0.73791289422290
