26
Coordinates from ORCA-job 23023optt
  Cl  5.39278823546431     -2.23503513260079      1.57848704568523
  C   4.50092925081315     -1.02260976363318      0.67356650153467
  C   5.02022981406386      0.25302134761088      0.75373605955554
  C   4.37863744508490      1.34757366919297      0.17255037206771
  C   3.15887035869987      1.11045433371632     -0.47826391747319
  C   2.63422928633220     -0.15389412209986     -0.56081607636201
  C   3.28224264917728     -1.31546536474088     -0.02151406202612
  C   2.68277564308643     -2.59478759475464     -0.22792022902494
  N   1.41208317256903     -2.61760242526908     -0.76182299801170
  C   0.81040183310539     -3.77379082942662     -0.93860667309066
  C   1.41660276346708     -4.97184597048004     -0.58201870382124
  N   1.03294841910744     -6.33875827878090     -0.75453714907740
  C   1.98722102321329     -7.09521631124602      0.08447672534006
  C   3.28013606824081     -6.26678828227257      0.04010800536349
  C   2.73546409665415     -4.86649783082899     -0.13085721557337
  N   3.38471462819075     -3.75430027030039      0.04032271742246
  H   5.94343145405429      0.39036242349040      1.30292088912889
  H   4.80529918242192      2.33910718286507      0.24326969345512
  H   2.61563687838106      1.93516363888441     -0.92762199163901
  H   1.69333145285439     -0.31688566101301     -1.06559446938544
  H   -0.18824988038579     -3.74630285547842     -1.37462369170800
  H   0.07678427630439     -6.51479787970259     -0.47362688656296
  H   2.11068502145721     -8.10968058345569     -0.29500291213232
  H   1.63682942856350     -7.14819408004876      1.12366404391066
  H   3.88487525601135     -6.52881409798831     -0.83298511825768
  H   3.89610224306772     -6.37741526163929      0.93071004068223
