25
Coordinates from ORCA-job 23037optt
  C   1.12098332603317     -0.31424631458929      0.16391237855857
  C   2.63843814395849     -0.11892219994941      0.06247250139772
  C   2.97139965942925      0.90075980102680     -1.11589357220891
  O   3.35057577029732      0.18739054012721     -2.33802062922062
  C   3.54095617215334     -1.08054218467704     -1.90409146189181
  C   3.25042743644635     -1.31729211347078     -0.62299576895110
  O   3.45627818146931     -2.64439445452429     -0.40614128491912
  C   3.89309698158912     -3.09712238468190     -1.59985556374914
  N   3.96246505012214     -2.21167184746868     -2.54688723917198
  N   3.09496213294455      0.34947198648958      1.33058386036438
  C   4.38554786078796      0.30915174001063      1.62945924985527
  C   5.50424201112437     -0.04535128975072      0.80611271935929
  C   6.75078611787087     -0.33432444242528      1.28918335386978
  S   6.98439840666350     -0.61238067494806      3.00459259828022
  C   5.74991281210846      0.55757932472486      3.51531526991742
  Cl  6.14033919379100      1.45419134497077      4.99964235716207
  N   4.70525784352462      0.84313732510808      2.88988511446920
  H   0.68595106865203     -0.56052168755979     -0.80800986312301
  H   0.67762189059031      0.60583193795499      0.54722186187118
  H   0.90525796732301     -1.11600592800329      0.87080038246154
  H   3.81364032737182      1.52309223798298     -0.81556049979386
  H   2.11198135707226      1.52490513917094     -1.35549059158839
  H   4.15360039724732     -4.14057886925650     -1.65635033510922
  H   5.40158141980623      0.04049821926787     -0.26871656238471
  H   7.64129847162308     -0.31065520552967      0.67583172454521
