18
Coordinates from ORCA-job 23032optt
  Cl  1.10236986885967      0.13271624446329      0.04115073942037
  C   2.85722697851307      0.07695338218200      0.04076754101886
  N   3.48809779906315      1.20775172414874      0.04107324975473
  N   4.82177303577916      1.27248466218363      0.04082787180339
  C   5.53134603315753      0.09780391593227      0.04022748118222
  C   4.89498120876131     -1.11190358911357      0.03987506194615
  C   3.49222013152680     -1.19056257661170      0.04014359077095
  C   3.22958400580867     -2.55726348635448      0.03961993344240
  N   1.96593242203705     -3.13837623454386      0.03965747678142
  C   1.69750606159988     -4.48143591128685      0.03888548927417
  N   2.47854047278554     -5.48116359123357      0.03806893959030
  C   0.25447366735786     -4.74480801501435      0.03905507657337
  N   -0.87569913374038     -4.93467368290695      0.03917059062638
  N   4.33918224303645     -3.30146015706924      0.03906589022939
  O   5.40886620870223     -2.36029589887635      0.03922096840788
  H   6.60803319926895      0.19311963625161      0.04003639559334
  H   1.19144038323911     -2.49125225539781      0.04012774970833
  H   3.45012541424392     -5.16463416675279      0.03802595387635
