29
Coordinates from ORCA-job 23040optt
  C   1.03935382327298      0.59251047089895      0.45028099547080
  C   2.30254727946255     -0.03822627499112     -0.09395234238170
  O   3.27991130556246      1.03056337432278     -0.31743242307204
  C   3.31315312035874      1.61294567409740     -1.49945766576831
  O   2.62376508993185      1.36913923601203     -2.45118539102302
  C   2.96539418742994     -1.03218554954101      0.85944832978657
  C   4.26096300160731     -1.59957966960176      0.27625104123628
  C   3.97296482032905     -2.37845420598944     -0.99900220822820
  N   2.79300345201974     -3.21650144684230     -0.85348316861907
  C   2.03229175841129     -3.27619565737207      0.32178120910172
  C   1.29498504883267     -4.46826635679605      0.50513942918512
  C   0.32628521639847     -4.70556986484854      1.48282956577941
  O   -0.34252388699915     -5.71452606910137      1.67866033920647
  S   -0.04863939329911     -3.30668264837782      2.61837861761905
  C   1.17280093070690     -2.12150163124115      2.29143381976682
  Cl  1.73246315471705     -1.25967320107198      3.77144368576756
  C   2.03424949683417     -2.17866108028204      1.18093093360857
  H   0.66118565229362      1.33812863801401     -0.25073420804907
  H   1.23812790807714      1.06247576670015      1.41515950743373
  H   0.28369576441754     -0.17708516040573      0.60063938386002
  H   2.10484728288144     -0.50594771951352     -1.05878142738476
  H   4.09556398436666      2.38574958889230     -1.50443919601655
  H   3.19658226982505     -0.49106519453319      1.77891568637391
  H   4.69581951559886     -2.26442406356906      1.02475768049866
  H   4.98301966201161     -0.80951883420318      0.06334928523602
  H   4.83932699932357     -2.99609989888186     -1.25601067490039
  H   3.83109246118805     -1.67587025234400     -1.82967109296131
  H   2.82736333987139     -4.09325028274770     -1.34455106341932
  H   1.45440675456807     -5.28722768668271     -0.18869864810696
