33
Coordinates from ORCA-job 23048opt
  C   2.86617452742896     -0.75671962639742     -0.89443579545702
  C   3.09879794528065      0.08549125953023      0.36368775850394
  C   2.18570137927266      1.31442185654907      0.24208792315043
  C   2.84732596187807     -0.75296108251121      1.64026968092376
  C   3.70978788345504     -2.02320316730316      1.60046128152822
  C   5.11015439192629     -1.82219450983704      1.08178454474236
  N   5.91082005919160     -2.94003506856280      1.19775486730175
  C   7.16138803436054     -2.74888199540729      0.74328275746394
  Cl  8.21995281247725     -4.16644113434132      0.90750339557668
  C   7.69356329572528     -1.62193794252522      0.19042659050316
  C   6.84587183746443     -0.48443184313684      0.05219089425038
  C   5.51438114392293     -0.63219889961876      0.53128044261341
  C   4.56568907286297      0.53227189802912      0.47522311079761
  O   4.69060590992703      1.40215527833831      1.62425423458865
  C   4.51775529190829      0.71316699387063      2.84558872957967
  C   3.14823420571958      0.04732721293791      2.92091293503223
  O   2.12748522900101      0.99643649294364      3.22647231241861
  H   3.47097189063989     -1.66032722109079     -0.91756376066794
  H   3.11578635768201     -0.16836897286332     -1.78140974215800
  H   1.81000257507630     -1.03464969864706     -0.96404839198454
  H   1.16016749330383      1.07728564758189      0.53432196949836
  H   2.17059359486585      1.65661375432679     -0.79575349449709
  H   2.54599746613319      2.15429616036032      0.83649164291260
  H   1.78868166501054     -1.03332935396714      1.68418653476274
  H   3.22310921646383     -2.78945764415513      0.98455760073739
  H   3.77722914640290     -2.46586425444218      2.60061061549888
  H   8.72701507387146     -1.61160057573137     -0.12682323660444
  H   7.20058815508520      0.45416507845831     -0.35041346766045
  H   4.82689315518237      1.17472492687432     -0.37221022108465
  H   4.59836342864811      1.46213532417340      3.63554695926077
  H   5.30533870101396     -0.03393097731605      2.97994914809066
  H   3.14334559121444     -0.64264153282988      3.76789771087808
  H   2.23222750760339      1.74168361671005      2.62891446949985
