30
Coordinates from ORCA-job 23046optt
  C   3.24389642585215      0.18864240861321     -1.16661903984506
  C   2.63437880672969     -0.35184539634157      0.12171255635058
  C   3.23481432781989     -1.73080845897321      0.44374125496638
  C   2.88638364873083      0.56572251293121      1.31852703903400
  C   2.41710699254289      2.00448531935601      1.08585007948805
  N   1.01731341525427      1.96037219460634      0.75562663897337
  C   0.46349856005798      3.04504847868218      0.26739058030300
  N   1.17925752977291      4.22105043122776      0.04981152214617
  N   0.60443462211629      5.42152208702431     -0.35167745841003
  C   -0.65725497297976      5.31984040679258     -0.68479346429386
  N   -1.45553223904731      4.25100927515304     -0.62706831534961
  C   -0.88491830700946      3.13932756113125     -0.13101693558841
  Cl  -1.88169152608605      1.72431517946956      0.00968773573149
  C   2.72396506758698      2.81265804816204      2.28673552512867
  C   2.95602137651803      3.48064634310385      3.25754415889931
  C   1.14579038106506     -0.61292176274060     -0.08584012477843
  O   0.68986368108334     -0.93429564791966     -1.15202114871044
  H   4.30728483705590      0.39813559753324     -1.02325042746892
  H   2.73782052726895      1.10307170390370     -1.47779851339104
  H   3.12937510663457     -0.53965642120413     -1.96892079438429
  H   4.31452286175701     -1.64163263342056      0.58462027398555
  H   3.04436651384879     -2.43091509600955     -0.37128551733348
  H   2.80750657502163     -2.14393773312632      1.36132869295063
  H   3.95382337891398      0.55798702738817      1.56031365614138
  H   2.34899265312456      0.17788583131372      2.18971698171835
  H   3.02407955438408      2.43480837681065      0.27031970455735
  H   1.99594948096163      4.37140142152440      0.61893483715526
  H   -1.10268553530808      6.24287821594925     -1.04340178622594
  H   3.13794459570225      4.07842526411021      4.11712940624321
  H   0.52469166062694     -0.60522053505113      0.82570288200677
