29
Coordinates from ORCA-job 23043optt
  C   1.01877098645445     -0.63183942993010     -0.17646393784207
  C   2.39874428569394      0.01584255955805     -0.16555457366842
  C   2.52319247940885      1.25497936294652     -1.06278308848778
  C   1.64931882181079      2.40048836152131     -0.51102461290307
  C   1.80159998620088      3.61943980681227     -1.38065402340582
  O   1.13613317669882      3.81546811275964     -2.36298476603913
  C   2.91450269105040      4.60059162566373     -0.99600883605680
  C   2.62915338743832      5.25319857016805      0.27539780347500
  N   2.38283848974786      5.76375578338014      1.27255986844783
  N   3.88697669708705      1.72706238114496     -1.12978698501814
  C   4.71178414256925      1.08578269583249     -1.90587126937999
  S   6.36499914118083      1.77112016875925     -1.81387999650225
  C   7.20027787626863      0.88603751132112     -3.07885040639121
  N   6.74157577578140     -0.16395440131336     -3.73620608879315
  C   5.51529952407421     -0.57282479919478     -3.55105367295373
  Cl  5.05037826458279     -1.99324608643888     -4.49510508117630
  C   4.50384252815779     -0.02461173639332     -2.74005689244929
  H   1.01232607326044     -1.54966970487710      0.41407529483004
  H   0.72171717289753     -0.89039220243549     -1.19558315246686
  H   0.25354758778630      0.02804249354821      0.23599504802667
  H   3.14579869989386     -0.70708341030060     -0.49805557096829
  H   2.67873968870274      0.30811030850460      0.85039102987243
  H   2.13057737230256      1.00701567320575     -2.06183758001737
  H   1.97376783691363      2.61973100925326      0.50934357051898
  H   0.59745000893829      2.11603657251662     -0.51323020746865
  H   3.01978452806649      5.34904325453443     -1.77918568921034
  H   3.82790416706245      4.00057395315864     -0.90274910513569
  H   8.21018584147051      1.22493435797440     -3.26653202797509
  H   3.52681276849877     -0.48263279167991     -2.76730505086145
