27
Coordinates from ORCA-job 23045optt
  C   1.35993765651291      0.32888412902728     -0.70906612577747
  C   2.66193569415020     -0.12594163098678     -0.05150598711988
  C   2.65985762633331      0.23304233618265      1.44034686722299
  C   1.79445187040759     -0.70223826153482      2.23522348205196
  C   1.75192053277275     -2.06117334638545      1.96021795418913
  N   1.05997605321352     -2.95727289050948      2.66910061631458
  C   0.27842521794822     -2.46542166245345      3.62130604146728
  Cl  -0.12045779969595     -3.56656395585756      4.97334730674542
  O   0.44492570963667     -1.18671688789551      4.14659810840817
  C   1.16255325011988     -0.24425629319036      3.43006851315521
  N   1.24163370844081      0.94546801967656      3.90200370542893
  C   2.52652019447944     -2.60218906775409      0.79740227470927
  N   3.40433551361634     -3.72277528623564      1.06752561674738
  C   1.86953038484219     -2.61419407882187     -0.54884559022781
  C   2.95950128433815     -1.61717422743242     -0.24485524981318
  H   1.28948832488817      1.41830509035816     -0.68510303749473
  H   0.49782142919430     -0.06735203241821     -0.16901792125958
  H   1.29909749889694     -0.00260038538776     -1.74769848746887
  H   3.47750213875337      0.42202091662206     -0.53284040706047
  H   2.30466346410923      1.25554294768337      1.58458194550188
  H   3.69308677186863      0.21526384050020      1.81505550420711
  H   0.69542677137243      0.99677747886501      4.75899002021365
  H   2.83776705100310     -4.42566398758053      1.53776283802924
  H   4.08898559797068     -3.42999356499679      1.75934765349350
  H   0.85085561543138     -2.25700671017609     -0.60730604047577
  H   2.11749839635861     -3.44594607961669     -1.19421672542433
  H   3.91676004303705     -1.84782440968175     -0.69642287576367
