29
Coordinates from ORCA-job 23050optt
  C   3.05583831270909      1.39175396682682     -0.60347539009985
  C   2.48952718034200     -0.00599701865651     -0.40215923858465
  C   2.90431255062917     -0.62200432669714      0.94042287518514
  N   2.24159609214893     -1.92819758372242      1.05356095433253
  C   2.15252018921750     -2.42911190366838      2.22037837502777
  N   2.68037512833834     -1.94161102694820      3.38443177062686
  N   1.42447195990817     -3.61954272361997      2.40979967923531
  C   4.39157558695956     -0.72020869849602      1.09418388695215
  C   5.14710758388954     -0.17155604463588      2.11876360725460
  N   4.50003008922899      0.56350495993027      3.16475616471250
  C   6.50704001016361     -0.45337279462095      2.10421607733389
  Cl  7.52900253281864      0.27500327521786      3.35986606309623
  N   7.15475740984650     -1.26325851271855      1.25161547851758
  C   6.44764221172152     -1.81848446422488      0.24937267717082
  O   6.88615130211093     -2.62397523284818     -0.57241904449696
  N   5.09212451520858     -1.43279058512046      0.11373352802239
  H   2.70495508491510      1.83301075671767     -1.53832260994908
  H   4.14634935671610      1.36430944026818     -0.62181211140424
  H   2.75380558817746      2.05456634603836      0.21293857970737
  H   2.82075444653295     -0.66636594265104     -1.20717161669204
  H   1.39712845666837      0.00705186797647     -0.43934860479857
  H   2.53749236465362      0.04792814914530      1.73028829609822
  H   3.22497072173330     -1.08340822767930      3.39539988787009
  H   2.24905825545083     -2.22850684452176      4.24460107786799
  H   1.17681049278624     -3.99789701606234      1.50574586820349
  H   1.94606205210516     -4.29819614719439      2.94984846387159
  H   4.09448232712528      1.42108873834323      2.80439700212977
  H   5.18662845061862      0.81873094351648      3.86382929225884
  H   4.56642974727579     -2.03946334989425     -0.49644098944979
