22
Coordinates from ORCA-job 23053optt
  Cl  12.30747517330776      2.25358899350334      2.94157708628233
  C   11.21379597098917      1.58848899078665      1.72349910942715
  N   9.95640690853494      1.87280103912486      1.87734784976747
  C   9.06548907039210      1.39673483346622      0.98952051766283
  C   9.48148864538260      0.68945306531992     -0.14374132460618
  C   10.82967724150981      0.46520481488490     -0.31525898957498
  C   11.77568261097621      0.78018443737139      0.69877267561456
  C   13.08835025363866      0.23913253892651      0.67997302414752
  C   13.39685343834309     -0.98458261824524      0.06369666529921
  C   12.34814998119554     -1.85311668015405     -0.25254319884652
  C   11.22339621596001     -2.31324627051425     -0.36884657676885
  C   9.79529458434355     -2.43701070343831     -0.54829321525145
  O   9.26184505477276     -1.86282967258287     -1.79158541727904
  C   8.53995888974814     -0.72180062267751     -1.81780393982143
  N   8.53527841159837      0.33757324702304     -1.13224103685796
  H   8.01901954888748      1.61261934124511      1.16153387179663
  H   11.18002555136580      0.01712813229652     -1.23233762294871
  H   13.87002152848096      0.76144724140310      1.21866976174898
  H   14.42751184693508     -1.30046285229194     -0.03031814531599
  H   9.28730483937315     -1.94069540853686      0.28226636009342
  H   9.46385182838086     -3.47499393083281     -0.59496688493206
  H   7.83012240588373     -0.78761791607771     -2.64292056963690
