34
Coordinates from ORCA-job 23062opt
  C   1.53920567836978      0.12887020754132      1.49760340068134
  C   1.89952204975453     -0.12383311576229      0.03898604687694
  C   2.84653138199359     -1.32515059459500     -0.16181090986844
  C   2.06847133664618     -2.66296827959150      0.02285013535852
  C   2.96000692573550     -3.62192068317427      0.83212860568069
  C   3.94192319837444     -2.68850262426115      1.44665146021258
  C   3.93192205011099     -1.43332811267810      0.89346032974217
  C   4.94451847339952     -0.54704433930404      1.27172173481391
  Cl  4.95667300786950      1.11842725384008      0.70612684817207
  C   5.89232277294996     -0.90649718341195      2.26312268592279
  C   5.89493680986604     -2.20391393259424      2.83587414645677
  N   6.64523940788788     -2.69698729742456      3.78620630891437
  N   4.95837357675751     -3.10796400273530      2.29503209858892
  C   3.49625877634600     -1.23139764494380     -1.56486403317051
  C   4.46005006246549     -2.38355215426433     -1.84315426855066
  N   2.46165822350865     -1.09732300800883     -2.60550892524736
  H   0.78186350131792      0.91147856858525      1.58094048776909
  H   2.41984691620741      0.43727321332258      2.06219060287577
  H   1.14807253243642     -0.77194312692126      1.97665319012564
  H   2.36499161953882      0.77121346729936     -0.37812219610357
  H   0.99748755363787     -0.30128780032458     -0.55220198457959
  H   1.76703197511785     -3.09912735027505     -0.93377663034872
  H   1.14836060102796     -2.46376118513625      0.57430971573790
  H   3.45592293420122     -4.36576763275104      0.18590898351269
  H   2.38247763869888     -4.19575378006866      1.56836042459625
  H   6.62767542207995     -0.19154657491471      2.60197391780614
  H   7.29014808721808     -1.97697535104938      4.09846413974062
  H   4.83439713396601     -3.93607542743540      2.85634057218889
  H   4.06385234985880     -0.29703641000698     -1.57591411763695
  H   3.92563383400632     -3.33872394251819     -1.84838101007967
  H   5.24689441520391     -2.43244869345664     -1.08967945381622
  H   4.92254459141862     -2.25585780035082     -2.82547291854365
  H   1.94247009757665     -1.96640095451068     -2.68507658632723
  H   2.90871506445162     -0.95717370811956     -3.50494280150149
