26
Coordinates from ORCA-job 23069optt
  C   1.13608357771339     -0.10083468762102     -0.06498792830154
  C   2.59342094952771     -0.09196015625378     -0.02535857815699
  C   3.79681388949860     -0.10159963750089     -0.00281554763623
  C   5.22343247281214     -0.11196054419073      0.01432338140386
  C   5.90163048783090      1.04032524221255      0.33608342938762
  N   7.29072975067106      1.07816506664700      0.27855919231095
  C   8.07304864644063     -0.10402968740339      0.22390553705534
  N   9.35176068603085      0.12196694571851      0.49182140289312
  C   10.20845616956823     -0.97730686889798      0.72814744816422
  C   11.13727221896968     -1.50069120288643     -0.36677736375994
  C   11.67238476922467     -0.70139250429684      0.79330680409027
  C   7.38353127661398     -1.26345467115263     -0.15791384718220
  O   8.05013561187482     -2.42969750982855     -0.49261033247567
  C   5.97410840338363     -1.26847329935266     -0.29156462361035
  Cl  5.16710691409444     -2.76577575574225     -0.64307043220219
  H   0.76979340503538     -1.05490709870361     -0.44847163742874
  H   0.75076426363408      0.68881626955527     -0.71378719648474
  H   0.70757062187457      0.04500133007100      0.92918049575205
  H   5.39212955750319      1.96679891553865      0.54942511518936
  H   7.76903089281894      1.79916951342014      0.79675514188618
  H   9.85461338140519     -1.74606070381126      1.41761448467422
  H   11.06403871483951     -0.99507320904283     -1.32026087536289
  H   11.37516703449334     -2.55732482281252     -0.41189502791712
  H   11.95328513411909      0.32412203245915      0.59512064639959
  H   12.27362349267647     -1.21925317654313      1.52889837501049
  H   8.98806767734530     -2.22156977958176     -0.55662806369865
