26
Coordinates from ORCA-job 23068optt
  Cl  1.46148756261464     -0.07154917917659      0.62621809840498
  C   3.17594871207102     -0.12813815072454      0.21574515172862
  N   3.64254004208544      0.88711594317181     -0.47526885909828
  C   4.95503356018543      0.80805934206132     -0.72639168796995
  C   5.82903415763887     -0.21895730101070     -0.39717466780654
  C   7.28411344054758      0.06758511539432     -0.79756466810012
  C   8.17828268381264     -1.10456591050463     -0.43878734565506
  C   8.24918897470681     -0.91626406630786      1.06940918860824
  C   8.29835294447398      0.48992261644211      1.26114052524206
  C   7.85513304947438      1.14267922312167      0.12705323837242
  C   7.89616680795023     -1.93818612000436      1.93633890128793
  C   7.11274915774220     -3.02467956811180      1.31311062495488
  N   5.82084879753138     -2.58503482276832      0.60367586229106
  C   5.27947029648419     -1.33808261105467      0.29940414609020
  C   3.90547350837511     -1.20927657407642      0.63711408250408
  H   5.37206313794027      1.65837710741028     -1.25911277495870
  H   7.31305909114140      0.32690521906555     -1.85817683875930
  H   9.16892613242177     -0.94152682982790     -0.88146769559074
  H   7.78976153260187     -2.05955594743174     -0.78262137630387
  H   8.49861790903574      0.96223719944088      2.21598105464582
  H   7.66071865215738      2.20000035640724      0.01856744208224
  H   7.67375669881149     -1.69424725093632      2.97042481005091
  H   6.78168990822271     -3.75305887878792      2.05627363800282
  H   7.68396777082478     -3.57217068502020      0.55910871112547
  H   5.07316216452082     -3.18304112715645      0.91910909086250
  H   3.42045330662772     -1.98354709961475      1.21689134798832
