23
Coordinates from ORCA-job 23078optt
  C   1.60039681595854      0.40703643118979     -0.29717370786085
  C   3.05980050374439      0.10627273025782     -0.05426943264955
  C   4.10813118833771      0.69512235053769     -1.00261741993806
  C   5.18244028663356     -0.32038622443912     -1.14715555133617
  N   5.37546647360396      0.88007256294237     -0.27663664568063
  C   5.10605995812699      0.71804157360741      1.15000463747023
  C   3.58372422302246      0.62277164854006      1.28958459190522
  O   2.93745978311544      0.93702075057373      2.24920323097933
  C   4.67160717921373     -1.57818145606820     -0.57635050432538
  C   5.24253860945418     -2.87873129770984     -0.44849075634729
  C   4.38516887066990     -3.76869293353172      0.18927753682504
  Cl  4.96949342177593     -5.43548274297963      0.36308032177391
  N   3.19744597161711     -3.57057733243803      0.68843842583511
  N   2.67838459094432     -2.26304382487886      0.63341982001067
  C   3.42763643958782     -1.38216506788309     -0.00418898075668
  H   1.41119040630650      1.48230202861077     -0.26755762882056
  H   1.00893220870051     -0.07712920402836      0.47916854906982
  H   1.28665511264098      0.01317908390297     -1.26472871630202
  H   3.83579444006101      1.43163999752119     -1.74965575215701
  H   5.85761052354859     -0.32414226224263     -1.99470212460359
  H   5.47607061611516      1.58534675493901      1.69647641100516
  H   5.56026243584536     -0.18550806825719      1.56429293444348
  H   6.21072994097580     -3.17676549816612     -0.81741923854020
