25
Coordinates from ORCA-job 23077optt
  Cl  3.47779138801214     -2.25788341697133      3.16646235729183
  C   4.02561767607713     -1.51702482456072      1.67276695726566
  C   4.32143048067252     -0.11907323277073      1.65750447340240
  C   5.15300993375100      0.35458400221510      0.62779020236495
  C   5.47742791311171     -0.42965459408274     -0.45602479991135
  C   6.64254642907658     -0.10887933214975     -1.36997553666353
  C   7.66310958456447     -1.12411399062811     -1.04323669362505
  C   8.13245387106369     -2.12085637095113     -0.55721230894038
  C   8.37644876632276     -3.30725320299438      0.26485078978872
  C   7.08466593094112     -3.71428584218941      1.00482628138948
  N   6.26947307520443     -4.59408733305502      0.18494891733684
  C   5.01471167729772     -4.53980329025498      0.11805581318041
  O   4.11661626853732     -3.67772774231881      0.65630137553338
  C   4.34730201940336     -2.29862651800804      0.59319474814572
  C   4.91817787275451     -1.75001400854265     -0.55716982466903
  H   3.99515310373908      0.51241423478418      2.47138366234289
  H   5.58242928752942      1.35104825368625      0.71009371724222
  H   7.00864185582485      0.90533693834999     -1.19914047933725
  H   6.36710140062741     -0.19579437541115     -2.42863135242463
  H   9.15486550606188     -3.08742356504616      1.00050172707730
  H   8.71700853452195     -4.15682022265820     -0.33146401474754
  H   6.56808426891707     -2.81891330232562      1.35847168520495
  H   7.37175089151990     -4.30747469776629      1.88021625028781
  H   4.49357169573306     -5.32358150402639     -0.42985501212757
  H   5.15761056873478     -2.39009206232384     -1.39565893540823
