22
Coordinates from ORCA-job 23073optt
  Cl  3.73448262902125      0.84920350174985      2.03651719353471
  C   4.45226755773301     -0.01410750433767      0.73690943396888
  C   5.83524049274648     -0.09388325014453      0.60764568054310
  O   6.22710588380586     -0.64246500214492     -0.62384751166918
  C   5.49546438980356     -1.64949166317780     -1.09133571426141
  O   6.27190143311781     -2.52906992105278     -1.80961933615821
  C   7.53729086613250     -2.66696519107662     -1.24623284284098
  C   8.47326815656492     -1.74863053041300     -1.43306652143807
  N   9.51482914647749     -1.54195444543214     -0.48737799073404
  C   9.16101239445920     -0.53717434359837      0.48500333920054
  N   9.89788504975497      0.49013380861689      0.58802872060033
  N   8.02836964720230     -0.83921591624194      1.21161920128147
  C   6.95711318506518      0.13163541881255      1.46851584767124
  O   7.09024142451578      0.97575347191162      2.34414602015764
  N   4.26331939908640     -1.80714585825085     -0.91682163727046
  C   3.59660174502478     -0.79333465022191     -0.12460216079588
  O   2.37928257190402     -0.72767932846604     -0.15537738807897
  H   7.62598911881851     -3.46796896622593     -0.51863949468037
  H   8.31105497631790     -0.98327086104630     -2.18888501067958
  H   10.37359975467191     -1.21580764325001     -0.91505287912089
  H   9.57140237409694      1.06051442283392      1.36714158961088
  H   7.65327780367911     -1.73607554884402      0.94733146115925
