24
Coordinates from ORCA-job 23083optt
  C   1.06186664930030     -0.17949881313802     -0.04565381425134
  C   2.53679973898420      0.04211692226496      0.08101067130150
  C   3.12251765560486      1.24096415400126      0.25733014661685
  C   4.57955249303567      1.32571103916413      0.38968513304384
  O   5.13498802215159      2.40420103048994      0.57027137409807
  N   5.29433946780662      0.14720030749345      0.31578161992528
  C   4.68425326943389     -0.99524465122816      0.12051011347196
  N   3.31452746436436     -1.07219027066086      0.00207873052448
  C   5.42182886334743     -2.23709471602480      0.03722416447105
  C   6.85446170853405     -2.27979420351760     -0.06402777143404
  Cl  7.79609721468154     -0.99854436213445     -0.77038740454207
  C   7.53393513415952     -3.49045662115053      0.13142779191362
  O   8.89522424485646     -3.58197636002718      0.07374602985062
  C   6.82107682671617     -4.61864464623368      0.37460757502343
  O   5.45265720519122     -4.62358981330947      0.32556500560321
  C   4.72178978355928     -3.47887769737366      0.15718262682823
  O   3.50204663862826     -3.65848669950682      0.14647766095970
  H   0.52949927304010      0.76591415329990      0.03489512046708
  H   0.70850870793749     -0.85393015004491      0.73708385153576
  H   0.82536709233543     -0.63865856712520     -1.00772338858346
  H   2.54121985248275      2.15020271381313      0.31598898356654
  H   2.93261667502726     -2.01884958676593     -0.05252244105522
  H   9.22666393939185     -2.70663826589705     -0.16579069611954
  H   7.25116207942958     -5.58183489638842      0.59223891678446
