27
Coordinates from ORCA-job 23086optt
  C   2.85675381897672     -0.64114698468464      1.03847387452169
  C   2.75093705023913      0.13169206563340     -0.27153630592689
  C   1.30472029932343      0.53360900377760     -0.57148306379841
  N   0.80817541448805      1.57507581765965      0.34818316571092
  C   3.68305760380359      1.35238063837473     -0.28757707325401
  O   3.54620502712077      2.12943498418017      0.87852904075141
  C   5.17592961989272      1.01644388459608     -0.58781339997342
  N   4.96861862431773      1.49346439261857     -1.95846364988371
  C   3.72765396389188      2.06076850012157     -1.63054445293012
  C   3.26853989130670      3.03767153704857     -2.44657383041022
  Cl  1.67421184153063      3.74913922946532     -2.19150933061319
  N   3.96764145957792      3.50652295458367     -3.48001665310958
  N   5.27175228025547      3.16776653756761     -3.59786530180002
  C   5.84389812765588      2.24971335017070     -2.74946413216351
  N   7.10852046666009      2.01236464244661     -2.64638715728458
  H   2.34017129876957     -1.60095883904050      0.96066545583808
  H   2.40764489170716     -0.07357880667433      1.85444792516823
  H   3.89843868090210     -0.83253782398846      1.30153212003723
  H   3.07634132763503     -0.50873520115892     -1.09808004158606
  H   0.67103271878228     -0.35421958918919     -0.49475140110860
  H   1.24897220826500      0.89179351462193     -1.60199201795800
  H   -0.09315261943967      1.33683349478178      0.73568862152692
  H   0.70639886801012      2.44903585114823     -0.15742144650308
  H   2.59577921929401      2.18424841573208      1.06552390264114
  H   5.48785689129547     -0.02620152862007     -0.50688367942131
  H   5.84857502662149      1.66528484991255     -0.02417181921004
  H   7.58232599911658      2.64413510891524     -3.28850934926085
