29
Coordinates from ORCA-job 23089optt
  C   2.89008027564056     -0.24884419075427      1.36052638941847
  C   2.36311055974424      0.05166033761692     -0.03927387807907
  C   2.92522980622102     -0.87932125561263     -1.14275263403813
  C   2.28751716024297     -2.27070533818441     -0.96089277454151
  C   2.44463026598008     -0.50198043470161     -2.55873599517188
  N   1.42196162777961      0.41587630019823     -2.64739181862051
  O   2.83339425883941     -1.09200567870529     -3.54009342096832
  C   4.45730030440521     -0.90344800893257     -1.06384490770759
  C   5.08778425209893     -2.07112161916248     -0.62041622016202
  C   6.45604679627174     -2.24136452330354     -0.26063547965606
  N   7.05572626221677     -3.32118125451027      0.11053914619595
  S   7.48786653443394     -0.79538889767149     -0.16281392648727
  C   6.57757137140186      0.37817334360672     -1.11004826700710
  C   7.33316976677154      1.47957842108526     -1.53742492404285
  N   7.99395024588047      2.37888907405776     -1.84940090956368
  C   5.20512754590518      0.24696349464179     -1.33211779087457
  Cl  4.44371985779250      1.64487568233441     -2.07690762365413
  H   2.43734345287575      0.43192876596126      2.08350850113167
  H   3.97212511383929     -0.12308194359237      1.40195242759804
  H   2.66177941819264     -1.26765212338152      1.67556058394976
  H   2.61571055475786      1.08736991885825     -0.27459720291799
  H   1.27095063888237     -0.03194273117569     -0.04175433467312
  H   1.20626942722681     -2.18144852228249     -1.08628504115610
  H   2.48651176850500     -2.67218456268276      0.03095310909337
  H   2.66650026731608     -2.96251751497948     -1.71062080953704
  H   1.37865020791510      1.13612196606200     -1.94610707327060
  H   1.24603433759391      0.72251988484607     -3.59209869919543
  H   4.50394326796366     -2.97451155359658     -0.51599395594229
  H   6.38599465330538     -4.09025703603920      0.10616752988003
