21
Coordinates from ORCA-job 23087optt
  C   1.10541172412692      0.52776938928192      0.53864710510344
  C   2.50799364078263      0.17529444016100      0.14610428758585
  N   3.29601128821288      1.22085243471894     -0.21852968134209
  C   4.57115824680016      0.92459008023143     -0.38114780348775
  Cl  5.61499678942926      2.25717732257334     -0.85266654140039
  N   5.22183438069867     -0.18496989241826     -0.22595040714074
  O   4.39461629932380     -1.27623258634485      0.10038264365453
  C   3.03616174551398     -1.12985995389348      0.25164775739318
  N   2.46861262745461     -2.27154748279442      0.53652694074259
  C   1.14052099797628     -2.49036617838296      0.34747004033720
  C   0.25389289545451     -3.20548797518438      1.08212831257960
  N   -0.96128157390713     -3.22749813057347      0.36784234922793
  C   -0.85725278896047     -2.54061380894514     -0.80940894463786
  O   -1.72098256346970     -2.36602806838864     -1.66208104002236
  N   0.44289625212508     -2.09493790889906     -0.80951661131253
  H   1.13367244317097      1.49768192752375      1.03660800130523
  H   0.67136483918931     -0.20986165922424      1.21159429771117
  H   0.43954490497911      0.62421707444326     -0.32474939019298
  H   0.38888656478367     -3.70060860639028      2.02448884138712
  H   -1.81791297560407     -3.66788823858830      0.64363595315467
  H   0.83585426191951     -1.54268217890611     -1.55202611064579
