32
Coordinates from ORCA-job 23094opt
  C   4.23258853795289      0.30716560047354      0.82660238348966
  C   2.94715176832158      0.02742656199234      0.03827697583437
  C   3.10675986252014      0.18632823655669     -1.45354102556204
  C   3.01943567296586      1.47972558830993     -2.01964359576878
  N   2.99949580247348      2.63613243122451     -1.18626724491401
  C   2.96512982477854      1.77112726904402     -3.40830919790015
  N   2.96069940275971      2.93642929211502     -3.98815289359867
  S   2.67328421993658      0.39080627393708     -4.50548632446020
  C   3.43092717499284     -0.94399788135547     -3.64268823898776
  C   4.15391841563754     -1.93889878442759     -4.49852952762273
  C   3.26123707851225     -2.52872857815809     -5.59842530724611
  C   3.89232765551354     -3.63234824009090     -6.31723989088668
  C   4.40520902855770     -4.55672290153564     -6.88423817518661
  O   5.27581257664998     -1.39064261554020     -5.18862631441441
  C   6.18109459869259     -0.73664980287541     -4.33621789786574
  C   3.43245125465090     -0.91073245699770     -2.27003083600159
  Cl  3.96800268343796     -2.39521256137269     -1.42022867902139
  H   4.06580851410512      0.23552310972645      1.90510888294196
  H   4.62484305157022      1.30081936257940      0.60077105002495
  H   4.99830631870744     -0.41739066120996      0.54756277824703
  H   2.14899186763049      0.68898664159677      0.39186022887094
  H   2.61093824382391     -0.98352186035743      0.26579116353904
  H   2.91204866428751      2.41370624829289     -0.20694580681810
  H   2.24866733541620      3.26746166417796     -1.45058485025376
  H   3.12501418739095      3.66082893725019     -3.29121246490077
  H   4.50338135709231     -2.75560314123278     -3.86001651497625
  H   3.00798351906815     -1.72943365410579     -6.29925504562511
  H   2.33411641033539     -2.87931290702914     -5.14153266576751
  H   4.87218321109917     -5.36793539012532     -7.38670997287527
  H   7.05824294654464     -0.48967219095234     -4.93371082113239
  H   6.48037934504809     -1.38487409224151     -3.50256913178757
  H   5.75156946952610      0.18121050233123     -3.92281103937421
