27
Coordinates from ORCA-job 23093optt
  Cl  1.09696910656138     -0.26056774465691      0.53629248574814
  C   2.81658067193424     -0.15453767826852      0.22984490730004
  C   3.41600810231140      1.14179352859594      0.18852934233678
  C   4.80499837138065      1.15094093375865     -0.09496383910248
  C   5.54758738361116      2.45607489057915     -0.16565950329046
  C   5.43399051654233      3.26022289238475      1.13414560073009
  C   5.92762702067052      2.46133865743298      2.34543667262542
  C   7.37704482727514      2.26549980230381      2.32059343264704
  N   8.51969458512127      2.15988853656209      2.31001494065694
  C   5.46932827011000     -0.03907231497509     -0.24696934749629
  N   4.89237983587338     -1.28324191976326     -0.17949604167118
  C   3.56455766687425     -1.29275859170790      0.05395929854867
  N   2.93353473241299     -2.57090856254937      0.08443867953117
  C   3.66396177037761     -3.64969501133992      0.69934637408646
  C   2.47753160528977     -3.05620205191521      1.36952573455308
  H   2.81127846076854      2.03806454431931      0.20988193719752
  H   5.15063779420813      3.07499394127525     -0.97893788921082
  H   6.60230374765882      2.26367627468867     -0.38408495597641
  H   4.38625690950790      3.50415188686044      1.31703462633472
  H   5.99071805288191      4.19752484881231      1.05886220953878
  H   5.43949878119240      1.48315899146557      2.34787474145813
  H   5.68291210221090      2.97117461890060      3.27880568234961
  H   6.53957194254021     -0.02810121179049     -0.43718217034478
  H   4.64374236216175     -3.40382415765363      1.08954184022473
  H   3.58100691323063     -4.60945366284378      0.20295524188589
  H   2.66275259316421     -2.41433246312180      2.22419890176147
  H   1.52052587412842     -3.56480897735363      1.37101109757772
