20
Coordinates from ORCA-job 23090optt
  Cl  1.09302554280311     -0.23005237337133      0.53877038387484
  C   2.76383828465285      0.02101200071041      0.16378570193733
  C   3.43525839454823      1.13322407218537      0.47677541898752
  C   4.85177546264583      1.21854706826037      0.13287938844531
  C   5.31875111696446      0.06847160248633     -0.67330803084156
  N   4.61026687872088     -0.95913657191001     -0.97354754528377
  N   3.35151210621868     -1.03335415813682     -0.47420323820619
  N   5.52328157197724      2.24639060851533      0.47911433893034
  C   6.91577039066548      2.32022224667043      0.26003726268181
  N   7.33444393187163      3.53173070499760     -0.06287669443580
  N   8.69083397522706      3.59119723027902     -0.28357443907312
  C   9.61457754074711      2.58481200372123     -0.03196092912780
  O   10.82456187602933      2.82793681486393     -0.16246986351536
  C   9.00092814751797      1.36391380247791      0.34579932091087
  N   7.65207809889744      1.22717724063228      0.46091437892679
  H   2.96355989154400      1.95332796131407      0.99552346643974
  H   6.32243742099026      0.08516785889886     -1.07014708848818
  H   2.79539870086798     -1.79243664411418     -0.82459275690505
  H   9.05890047202403      4.51064875919872     -0.45980942903964
  H   9.62980019508618      0.51219977232044      0.56689035378191
