31
Coordinates from ORCA-job 23102optt
  C   3.03729393170440     -0.29210305005295     -1.45501277741218
  C   2.58452809380106     -0.15499550129500     -0.01415009738973
  C   3.04873213530595     -1.29270740831947      0.87037990391993
  C   2.56332140765422     -1.18345261427961      2.30939574510841
  C   2.96817788090363     -2.39828108945829      3.17022159236972
  C   4.44096748345183     -2.60320773996730      3.29428985625001
  C   5.26990537545067     -3.29075242346834      2.36378091924399
  Cl  4.43866303234070     -4.50412762040435      1.40656600030382
  C   6.67053938541890     -3.15309519143562      2.33819239581720
  C   7.16374203100331     -2.16003119185299      3.31286676054454
  C   6.33711337504910     -1.40543263874848      4.02859909239631
  O   4.99254658975760     -1.48366282272557      3.96986605363061
  N   7.66580078157161     -3.69069369801836      1.65997640183000
  O   7.21704541934105     -4.62510615888122      0.67879741303663
  O   3.15162497595539      1.06636998153260      0.53742118065189
  C   2.54500946197658      2.20518573741743      0.27010357288660
  O   1.55932341919472      2.35976039065069     -0.39869169947523
  H   2.62609782331110     -1.20800880816510     -1.88054567038696
  H   4.12554079819099     -0.35568627735272     -1.49580279129136
  H   2.69948934058294      0.55483892361671     -2.05232692369152
  H   1.49840660486830     -0.04621334128548      0.03178074878264
  H   4.14127202063843     -1.34742746384133      0.84770129455840
  H   2.68991064053716     -2.22758863901822      0.42910709282186
  H   1.47019823885072     -1.08098381374743      2.31983965721651
  H   2.97433070050809     -0.27859716329051      2.76254936180751
  H   2.51429709326510     -3.30072257458425      2.76142212908143
  H   2.54756004573409     -2.24873362744491      4.17118982117846
  H   8.23315475845125     -2.03534142668531      3.40333451558423
  H   6.67093217395106     -0.63605455962791      4.71385249764065
  H   8.05217432791536     -4.88875738179317      0.28915252785958
  H   3.07730065331457      3.02960919252651      0.76414342512599
