30
Coordinates from ORCA-job 23103optt
  C   1.54503620958473     -0.34171659564916     -0.78162134601872
  C   2.81370297275614      0.13243787496621     -0.04973801843934
  N   2.97279799042602     -0.50604829376471      1.22478906232396
  C   2.32547994143438     -0.00363301427450      2.23486162867632
  O   2.44066257586687     -0.81504687235867      3.35780897822678
  N   2.23005361704215     -0.34539586456616      4.67356890068455
  C   1.48940539815142      0.72878943220181      4.74233671538191
  Cl  1.17519538948270      1.22736616687982      6.39501283014812
  C   1.01306744651812      1.47163195989059      3.67668806847199
  C   1.49860488919808      1.12067134909984      2.40177423727881
  N   1.16967090660643      2.15748257708135      1.46609732244061
  C   0.03807339969953      2.86341365591153      2.07881500634108
  C   0.29679599140168      2.80262141995360      3.59682166027362
  C   -1.01844301544698      2.89110505011403      4.36647375402056
  C   1.23189793676748      3.94528526607747      4.01398808383893
  C   3.98148105088489     -0.18516358607431     -0.90340899212113
  N   4.85855403375035     -0.40725312791339     -1.60872210182568
  H   0.68026078140069     -0.14817874483515     -0.14506795436882
  H   1.60613016469387     -1.41773872833431     -0.94083433979759
  H   1.41770513272868      0.16047245552682     -1.74320206382091
  H   2.80889370291790      1.22882915182158      0.00833216731502
  H   0.92694433375178      1.81097070570135      0.54747135966116
  H   -0.91089763424434      2.35058941109901      1.86691734802182
  H   -0.02785108299534      3.89109785337437      1.71404038858720
  H   -1.65042834115646      2.03009500710449      4.14308566224105
  H   -1.55822555272556      3.80244704052774      4.08892357274043
  H   -0.84235234221069      2.91511466344143      5.44131192410206
  H   2.12980812156145      3.94009744448885      3.39393217710887
  H   1.52956700884932      3.82689591806898      5.05679163675862
  H   0.73340897330466      4.91376042443945      3.90175233174867
