25
Coordinates from ORCA-job 23115optt
  Cl  3.49870317151301      2.19841415950503     -3.00501957314450
  C   4.57225604403041      1.29524949710667     -1.95438530652124
  C   4.32361696689393      1.27452873255502     -0.58936043478838
  C   5.23874341625957      0.69698245015799      0.28931104130679
  C   6.38478360464524      0.07790044084109     -0.21618615490561
  C   6.46841779857235     -0.06132786870049     -1.61059330007861
  C   5.68495079999693      0.64440714308598     -2.49207251301351
  C   6.23735889381486      0.87033122820368     -3.88753863844570
  N   7.65358156685195      0.50119292602025     -3.96189913818588
  C   8.58590690586034      1.29089809690694     -3.12388930135158
  C   9.59187023165514      0.43786089266716     -2.28921328810470
  C   9.63758939578838      0.87827768356509     -0.81105648248093
  O   10.38806167352598      1.83165632807438     -0.50360219136314
  C   8.73969121685858      0.20982968964225      0.03215970706571
  C   7.63341253704764     -0.23674282781013      0.44602970030849
  H   3.44759745212666      1.78497600546121     -0.20934591529127
  H   5.10549853044298      0.81242257954889      1.35740561121159
  H   7.32120561379658     -0.58517865095731     -2.00349112530029
  H   6.05907026229158      1.92798939215056     -4.13346222231084
  H   5.69485341200335      0.28166254946940     -4.63330815452920
  H   7.94876244383230      0.51453586295947     -4.92687833663611
  H   7.99966977300176      1.90443505142437     -2.43872420703060
  H   9.14585888567247      1.98890550895348     -3.75284713459909
  H   10.59985701318881      0.56177647640248     -2.69304455849992
  H   9.31768239032896     -0.61298334723345     -2.38198808331142
