27
Coordinates from ORCA-job 23116optt
  C   1.03415403375145     -0.26392795551231      0.80692780041891
  C   2.45473706285827     -0.07059902786727      0.37937924668096
  C   3.03174416972349      1.12781762648134      0.14701504349760
  C   4.40598783642468      1.17186850836946     -0.27316456107917
  C   5.31180685925132      2.19541784415427     -0.54080678053338
  N   6.52141960745236      1.68552499855817     -0.90061498130445
  C   6.41442761487402      0.33938229277272     -0.86451452347644
  C   5.12968740876247     -0.04785760089978     -0.47626198409509
  C   4.46791804191732     -1.29464452607529     -0.31849089485156
  Cl  5.39540625367816     -2.71642016910325      0.28127042747483
  N   3.18098421322222     -1.24207345977884      0.22200537251429
  C   5.07741137700548      3.67736206278538     -0.42123139596719
  N   4.72147848623486      4.12205325749629      0.94477862385564
  C   6.31074947660232      4.47746001841724     -0.83409182148100
  O   6.78711141912921      4.14838831456685     -2.11574312860191
  H   0.54316334990178      0.70066669967764      0.92227565946770
  H   0.97712485672810     -0.79769786014546      1.76071184345434
  H   0.47250056486093     -0.84757800083995      0.06996513609938
  H   2.43879391974530      2.02525772198225      0.27880937932948
  H   7.24986551508884     -0.30061724961330     -1.10941668394105
  H   2.66702165741893     -2.10877177285663      0.23524852861346
  H   4.24572298206307      3.97482844949619     -1.06987831686608
  H   5.46769595333585      3.80834796696851      1.56153016791973
  H   3.90897963635600      3.59557650974487      1.24939328351468
  H   7.08958996089029      4.30809810090183     -0.07652558135506
  H   6.06171224573508      5.54016798379021     -0.82742845750211
  H   6.97680549698795      3.19196926652879     -2.05214140178649
