33
Coordinates from ORCA-job 23114opt
  C   1.40373508821520      0.08443531904527      1.56173120455458
  C   2.59438415596595     -0.04361540962351      0.65088862045766
  C   2.90926028737381      1.01178446062501     -0.17001527824793
  N   3.94905264179219      0.89903322245446     -1.12977403488149
  S   5.32153207604965      0.07498026690281     -0.60467232856500
  O   6.11942581462239     -0.18348445471613     -1.78865215326995
  O   5.97044940168434      0.89946467459077      0.40337983804168
  C   4.64708625659517     -1.35051744385116      0.00721289920400
  C   5.39951638676835     -2.63993745944020     -0.20767592712223
  N   5.20841767711093     -3.27032612783444     -1.53194588691596
  C   6.92678435831113     -2.55812931735290      0.00681534102748
  N   7.41468796103869     -1.91430824961518      1.21621591938390
  C   6.98154851688193     -2.51722180309961      2.44093697367552
  C   7.09182814249872     -1.74391775962715      3.71063703778126
  C   5.73001020282985     -2.10246085759671      3.16799928334160
  C   3.39021761440245     -1.20332108840787      0.64025778369448
  Cl  2.75519632418873     -2.59979250273162      1.51752857832889
  H   0.97894540035956      1.08558410084547      1.47923907199972
  H   1.67265613858490     -0.09265746370320      2.60510298614713
  H   0.62646733663951     -0.63882249360775      1.30458365706095
  H   2.38075579293892      1.95270923177124     -0.13486435747212
  H   4.24403272284656      1.78762393094962     -1.51918045070749
  H   5.00629863611599     -3.33972866791327      0.53116882215239
  H   5.49525151937034     -2.58471536439682     -2.22766453335286
  H   4.21144427066544     -3.39595645290746     -1.67523880579923
  H   7.36871110681859     -2.03663250583175     -0.84296635016800
  H   7.30345336549901     -3.58451965196247     -0.01388720032106
  H   7.18143216959820     -0.92477860907564      1.20747669724793
  H   7.23926257029460     -3.57020704200468      2.49344439717921
  H   7.39954596183187     -0.70986146477036      3.61886755355711
  H   7.45057439668011     -2.24620708441689      4.59911457699832
  H   5.15511923825793     -1.30421740752788      2.71776216983818
  H   5.14791646716875     -2.85527852516993      3.68217389515128
