31
Coordinates from ORCA-job 23128optt
  C   1.51237649601026      0.73365899452432      0.29273173653814
  C   2.76079160603895     -0.06571569094904     -0.10023312907673
  C   3.92789358402447      0.84554121786499     -0.47978079308307
  C   3.12196309467960     -1.13392538504220      0.91283419321467
  C   4.02997391510032     -0.98494646519257      2.00860429403210
  C   4.17005719195321      0.23627106042685      2.76056704187602
  N   4.94383879108748      0.18755356998382      3.93468665790921
  O   3.66272963978509      1.32863465557478      2.47688275944292
  C   4.64284496725513     -2.22768778150856      2.46556117481059
  Cl  6.36925618939856     -2.30210670448133      2.90901279002034
  C   4.04140630011083     -3.41338435811655      2.26262921888414
  N   4.56590183878568     -4.67809180146848      2.59126453893782
  N   2.80434811398945     -3.42487649056411      1.64150167846997
  C   1.92451541923627     -4.55794290171172      1.79812267927852
  C   2.45857430666263     -2.38450002715263      0.72779509515085
  N   1.53395746840428     -2.57710746210361     -0.17825427080518
  H   1.22256763913190      1.40672379362629     -0.52133024927331
  H   1.70650543624208      1.32311010784761      1.18779540767649
  H   0.68515173648046      0.04549779114049      0.47570730489577
  H   2.48283555297242     -0.62936333823408     -0.99418941904969
  H   4.21138999402602      1.48992767554371      0.34979283792706
  H   3.64153334015131      1.47393044687552     -1.32913669524527
  H   4.79654382699954      0.25197815685574     -0.77474075633175
  H   5.01822413397428     -0.70283878181209      4.40061474650718
  H   4.70693241865382      0.95659151681084      4.54203185242361
  H   5.52126190367387     -4.59263155887940      2.91152532306222
  H   4.52476900230498     -5.31506412647408      1.80312743902774
  H   2.16107743931553     -5.06611020131074      2.72990541274935
  H   2.00810997819072     -5.28518282804086      0.97912906924432
  H   0.89135392314934     -4.20875018780230      1.82941136165227
  H   1.21231475221138     -3.53819289623053     -0.18156930086636
