23
Coordinates from ORCA-job 2312optt
  Br  1.18617885871599      0.18696837136236      0.04974590592757
  C   3.07129260644866     -0.05929114157979      0.05649960613248
  C   3.68254960294471     -1.35233935066809      0.05730559194401
  C   3.05458343705383     -2.63281318381489      0.05721851674386
  C   1.71958889245479     -3.07002106857822      0.05826110208670
  C   1.71910054056308     -4.47789980738274      0.05800561584194
  C   3.02027990582236     -4.96470729680346      0.05659388243111
  C   3.87974627107269     -3.84362715450028      0.05634523280164
  C   5.25827253051112     -3.73980421857451      0.05587765424766
  Br  6.31025206903474     -5.32318160995906      0.05328285759663
  C   5.89759297885391     -2.49710258916681      0.05732596743491
  C   7.30953516566278     -2.34761045025568      0.05759205957044
  C   8.49698021783736     -2.14074138431351      0.05801464728185
  C   5.09592509723768     -1.33324805329577      0.05827122258968
  N   5.74203525244672     -0.09393906380767      0.06012890327483
  C   5.03463688226765      1.07394828843062      0.06043022480716
  N   3.74869898628628      1.10978672801009      0.05835666096300
  H   0.83807495710768     -2.45596836671638      0.05931571957049
  H   0.82507202388867     -5.08805414505150      0.05882113123627
  H   3.33709602949789     -5.99584193180041      0.05618697442864
  H   9.55040367380616     -2.00397054747772      0.05787819868333
  H   6.74948396998093     -0.08895841884735      0.06130241817512
  H   5.61162005050424      1.99041639479077      0.06223990623070
