30
Coordinates from ORCA-job 23125optt
  C   1.04441577485126      0.34345119916843      0.32559630697581
  C   2.49118057357644      0.16124171941738     -0.03889615223960
  C   3.02320704238298     -1.05194868519866     -0.36902295296465
  C   4.54778717882823     -1.29089056720681     -0.47307003236792
  C   5.16638093437777     -0.05952831850507      0.12022970804599
  C   6.07945985354265      1.07216988477812     -0.25299112374949
  C   4.61769299444675      1.13538557609402     -0.59672379705333
  C   3.29677682693961      1.47117881800633      0.02970346479237
  C   2.22494636500029     -2.26266112934159     -0.57677912466985
  N   2.63949958036220     -3.40351061598107      0.11406560257345
  C   1.89446119439940     -4.46244323647538     -0.10985457089951
  Cl  2.35491824146256     -5.93469418677369      0.77638796693248
  C   0.81422967199468     -4.54020254868865     -0.94802481422525
  N   0.44541839246976     -3.44817704469328     -1.70213843234736
  C   1.17131064035478     -2.35241069799092     -1.49997962725953
  N   0.86983544665918     -1.28915395658924     -2.35912699542664
  H   0.54630672048802     -0.61412425525146      0.47394189011436
  H   0.48013702872565      0.90260709293710     -0.43260671678627
  H   0.97107043503831      0.92951009429751      1.24942449609922
  H   4.82487504926839     -1.43521716741534     -1.52188014949797
  H   4.77025004767901     -2.21643321335593      0.05875741371943
  H   4.92942170055166      0.00178954480140      1.17954545809059
  H   6.74130930618776      1.00790988225054     -1.10824244265368
  H   6.49145390268761      1.62472285724244      0.58297561219068
  H   4.47955794871455      0.90292328082141     -1.64946109576151
  H   2.74919504823134      2.26508050739418     -0.49495686520375
  H   3.40127505998531      1.79858990304533      1.07169871570760
  H   0.25187480789803     -5.45568800935955     -1.06479562659233
  H   -0.08216037157957     -1.34082126965886     -2.68885915401920
  H   1.14191260447537     -0.37965545776867     -2.02791696152413
