30
Coordinates from ORCA-job 23126optt
  Cl  1.17056861789671      0.12724286132090     -0.65144079077464
  C   2.92162399267806      0.09932628475415     -0.32410481856152
  N   3.50007434568179     -1.08258693044213     -0.53887775401531
  C   4.86242467034888     -1.08268914103151     -0.28029264411475
  C   5.56283369816567      0.01968781492979      0.13431764843866
  C   7.05700096008903     -0.02096909694564      0.34405898667083
  C   7.66427732953697     -1.29945666169762     -0.23548710816542
  N   6.89252821433986     -2.50052292004371      0.06890222461359
  C   5.54324646665445     -2.40645315089446     -0.49670033076499
  C   7.70970171962260      1.22459220846106     -0.25253252521847
  N   7.49158123770341      1.42533903401236     -1.71219290444500
  C   6.84974178522052      2.74048112610737     -1.45498315034909
  C   7.01154759957204      2.57465781084500      0.06773100957700
  C   5.69030437768331      2.43479292221775      0.82972230067385
  C   4.90672252935057      1.26096359031533      0.34127674984636
  C   3.49558529483901      1.26469263471659      0.10157733552894
  H   7.27142088279214      0.00989794571746      1.42363199994182
  H   8.68948327214365     -1.42837937237804      0.12494061835560
  H   7.71816089974564     -1.21387120486805     -1.32596868136959
  H   6.79889886351353     -2.56193257062890      1.07844794235268
  H   4.92283869361694     -3.19614879242938     -0.06417252345651
  H   5.60588116647683     -2.62657702382066     -1.57104910256568
  H   8.78088743700084      1.21753997018733     -0.02279460170829
  H   6.79998838593582      0.75960023818701     -2.04647835051316
  H   5.80690397608965      2.79500079546644     -1.77541935216883
  H   7.41295405724098      3.56527272148587     -1.89911603791907
  H   7.66360739536472      3.31407360749493      0.53899443807361
  H   5.11037289640419      3.35598156116503      0.70230461338581
  H   5.92255475697466      2.37454281995063      1.91012235608222
  H   2.89528447731739      2.15590091784511      0.22958245256936
