33
Coordinates from ORCA-job 23129opt
  C   6.17238743095550      1.26315147395676     -0.06920275939545
  C   4.73392884932474      0.76598526660587     -0.24204370682873
  C   3.91677492630522      0.96944307835274      1.01016611226225
  C   3.32317830873662      2.17334650967671      1.29928703576824
  Cl  3.44715927371260      3.48915842343922      0.10157339169343
  N   2.66325118473315      2.55066278300676      2.40045366374471
  C   2.64229655401265      1.59483774379121      3.36983186828485
  C   3.17283283372610      0.34295227852019      3.24096076645863
  C   3.81198932456598     -0.05664605649218      2.03022066305280
  C   4.22268535194111     -1.47032261336403      1.76643904924911
  O   5.63214373549546     -1.54812086616811      1.48860291614720
  C   3.88808550944200     -2.41664940276151      2.93919140909289
  C   4.03694485660395     -3.93993701710863      2.70317667822294
  C   2.67882327154067     -4.61114483347638      2.49592246257775
  N   4.98675141883428     -4.26679523236346      1.62385547625487
  C   3.47868792341476     -1.99065918246325      0.57212448189718
  N   2.85744243334519     -2.43222212319231     -0.29239653788137
  H   6.76212701530762      1.08128399598546     -0.97200318494841
  H   6.64283089177786      0.73874803127096      0.76257389386045
  H   6.18138821756242      2.33425514021737      0.13829653497869
  H   4.76457249108464     -0.28820050868417     -0.51089658391848
  H   4.26260438258195      1.28825777878842     -1.07469071101435
  H   2.16923701128467      1.88586495947766      4.30317228450961
  H   3.10890503441661     -0.31570100967389      4.09683970101390
  H   5.85343363518850     -2.49336220256150      1.43593077996187
  H   2.86361062186537     -2.22712972548297      3.25845534681141
  H   4.55039376070555     -2.09826145112068      3.74528771805686
  H   4.47672287248467     -4.35356286225137      3.61393551027700
  H   2.19443608643703     -4.21653114666085      1.60098092513206
  H   2.02152825875832     -4.42944222490997      3.34856106979774
  H   2.79938818983665     -5.69079404012256      2.37868887916425
  H   4.52368172527997     -4.17204849670878      0.72300580864689
  H   5.27477661873801     -5.23441646752273      1.70469905706914
