23
Coordinates from ORCA-job 23123optt
  C   0.68510215733205      0.30352452298600     -0.19486106258158
  C   2.13892904560975     -0.04125282576140     -0.13924731162464
  C   3.20326176778034      0.84422849586419     -0.15923980747652
  N   3.12789271441789      2.25931524195173     -0.23850782948406
  N   4.43436242425291      0.24117865297370     -0.13726741602229
  C   4.13845527226395     -1.04194168971334     -0.10030354730455
  O   5.09816648118882     -2.02474008627822     -0.08161686111674
  C   4.60059829150304     -3.30736216460604     -0.03481341612762
  C   5.68868499072875     -4.33417337807794     -0.05583303405602
  C   6.53889403400214     -4.32879834000946      1.14013206216707
  C   7.23539676113335     -4.32542315886195      2.11630588273122
  N   3.34550301819425     -3.63400048707855     -0.02095763325099
  C   2.41010641722267     -2.68991911646324     -0.04531494421490
  Cl  0.74102728306977     -3.21136673639673     -0.02252375575536
  C   2.75769089849809     -1.32539856228205     -0.08902065317824
  H   0.56351151281312      1.34195134269484     -0.51365136935158
  H   0.18091935890127      0.18854148731862      0.77087806221669
  H   0.14854629693442     -0.32864444032165     -0.90569060274250
  H   2.56006713621355      2.64497440642306      0.50599480029308
  H   4.06585286714349      2.62960428155646     -0.14980274753729
  H   6.33440946101620     -4.17534971386890     -0.92810336527830
  H   5.21384393890376     -5.30935474020973     -0.15786520855987
  H   7.84077787087633     -4.30359299183936      2.98930975825498
