28
Coordinates from ORCA-job 2313optt
  Br  1.07184537643171      0.02713103111392     -1.43311284886919
  C   2.89477357341499      0.21603763971396     -0.82025728368415
  C   3.74227670564971     -0.92689166796474     -0.78962307977633
  C   3.40803479314945     -2.37237528099570     -0.56490119811329
  C   2.38557817564072     -2.61370928011970      0.58322984738950
  C   3.10630359330268     -3.57193722192872      1.57130975911510
  C   4.57596590029417     -3.10983235461805      1.44010811910104
  C   4.76949541734510     -2.96084552513256     -0.06825807314488
  C   5.85875837815992     -1.93153343864062     -0.42095554526435
  C   5.09083873280823     -0.63651742114785     -0.47818461791381
  C   5.51728266676743      0.63783190796186     -0.23009329783573
  N   4.68571674209808      1.73980208124357     -0.29681325040550
  C   3.40507304646777      1.47460444300734     -0.61416286898116
  C   2.96794603251789     -4.97091573288969      1.14396565350547
  C   2.87128718269026     -6.10542912700539      0.77290405833070
  C   2.60511173739055     -3.44420720092013      2.94674905680822
  N   2.22324920679749     -3.32509110489822      4.02169367709062
  H   3.05142199612989     -2.88792456905739     -1.46441589551711
  H   1.43722978998210     -3.02956785455475      0.24742079448135
  H   2.18337059917107     -1.67323512328906      1.09859428411175
  H   5.27067588247698     -3.80455417277008      1.91221275307844
  H   4.66614513423153     -2.12970347978576      1.91843790194689
  H   4.96859707000597     -3.94172077051305     -0.50432306987453
  H   6.28890875860210     -2.16336643382775     -1.39997432515004
  H   6.67273072686928     -1.92083216209300      0.30948017140778
  H   6.55646070242355      0.83802934235731      0.01428662822412
  H   2.74409116972043      2.33188015410573     -0.71326323748975
  H   2.78183090946067     -7.11112667735132      0.44094588742879
