31
Coordinates from ORCA-job 23141optt
  C   0.90592994423930     -0.19175286349767     -0.52065118194758
  C   2.38396505832832      0.10839638722727     -0.34474284657032
  N   2.86222501907629      0.94574097205916     -1.44402073806074
  C   4.24161183658842      1.27718569857328     -1.40354468914303
  C   4.77907923722284      2.50460553753217     -1.02589972932493
  C   3.88660382025797      3.70276975081954     -0.72612249940638
  C   3.41746600161252      4.38949095474261     -2.02555632692623
  N   4.58874819827928      4.68567502338087     -2.84976970346460
  C   2.73291519933011      3.43326864210732      0.13657529204063
  C   1.77063295748063      3.27370720292318      0.83598447665873
  C   6.16584167616103      2.73201257878920     -1.00832962697444
  O   6.64237799276638      4.01762482461380     -0.79566844667653
  C   7.12739207646281      1.70891149001347     -1.15362356367589
  Cl  8.80170999490313      2.11811788427433     -0.83848677373204
  C   6.88134377810933      0.36013316085864     -1.49102710246818
  N   7.68105086364272     -0.65301944240251     -1.57621779385271
  S   5.22190366112583     -0.02995293068259     -2.04841642815881
  H   0.53768967328042     -0.83396707212595      0.28122733093046
  H   0.73009433443227     -0.68622122093003     -1.47702171211722
  H   0.32353696885234      0.73399180595039     -0.50551435615715
  H   2.96821634752550     -0.81341301424790     -0.36236215766832
  H   2.55964171179343      0.58955418885034      0.62673876243795
  H   2.27984474892096      1.76982820193471     -1.51816123402259
  H   4.50077699403030      4.42547693833713     -0.18512983314434
  H   2.91175431604073      5.32561291623100     -1.77993080101954
  H   2.69388386676839      3.73807850802911     -2.53145399561533
  H   4.32472932826340      5.20198178624469     -3.67925128333673
  H   5.00325113584371      3.80666712481892     -3.15281555541582
  H   0.93545591110659      3.10179930651815      1.47045821202772
  H   6.22185646078533      4.59567905882650     -1.44966303924953
  H   8.62247088676953     -0.35398339976919     -1.32960265596644
