30
Coordinates from ORCA-job 23149optt
  C   0.95207869353933      0.22425631507174      0.24642206973931
  C   2.44397847967029      0.00238475134912      0.10796916546422
  N   3.13195450883077      1.14822900050611      0.07363733014176
  C   4.49862372018998      1.10361624370981     -0.03247173841074
  C   5.14889858569537     -0.14302628987367     -0.11229215815063
  N   6.54634407897731     -0.13791319108217     -0.22922216695575
  C   7.19671938412321      1.04982510487318     -0.26208333692117
  Cl  8.94580523423966      0.85585007614695     -0.42072496916741
  N   6.69298890579672      2.19440847578081     -0.19306671880837
  C   5.26637081218762      2.32592310898928     -0.06681090309490
  N   4.74845875250136      3.50937480466441      0.00752328157920
  C   4.44339220560824     -1.32145612661625     -0.07579735536839
  C   3.01370362932408     -1.26817742465740      0.04935736215675
  C   2.26749253261022     -2.58951317156241      0.06947386034052
  N   1.24818436399965     -2.77238247669566      1.11750637140521
  C   1.62995621600496     -2.93959946304260     -1.27769907806687
  N   2.65149214719956     -2.95525196676347     -2.32267295109631
  H   0.73513876612540      1.23804488314693     -0.08461050083189
  H   0.64033724439513      0.14185777505497      1.29160321072729
  H   0.35555725949451     -0.47473426868264     -0.34140379281216
  H   7.05671818626194     -1.00053693887267     -0.30311993525843
  H   5.51303743917977      4.17982127801098     -0.04045221045983
  H   4.95718425853922     -2.27470063317042     -0.14087676298895
  H   3.02227109669936     -3.36295714735884      0.24480760519656
  H   0.47521077724819     -2.13874137173772      0.94980688399688
  H   1.64706365834186     -2.47511163287299      2.00221467546234
  H   0.81996901961234     -2.22572339316588     -1.48083511815546
  H   1.18267848902692     -3.93378018348642     -1.19914942173963
  H   3.17107270597305     -2.08225945956966     -2.28334027238850
  H   2.22431884860392     -3.00872667809341     -3.23869242553467
