25
Coordinates from ORCA-job 23147optt
  C   1.18466233102543      0.17522285217654      0.11718503464734
  C   2.67114582977210      0.05377064883510     -0.00157559883774
  N   3.39343837029511      1.15223929796126     -0.15281981178382
  C   4.71004736330359      1.05236733651554     -0.26478725249696
  Cl  5.58676672858089      2.56774759576808     -0.45190456800439
  C   5.44581353226708     -0.13635443209464     -0.24508702939649
  C   4.69396780222736     -1.28082285991398     -0.08846450665017
  C   3.27575018150688     -1.22724477522961      0.04505137025950
  C   2.79994891493625     -2.53490041300815      0.19721716085890
  C   3.89358663040617     -3.41255268982610      0.15919672027442
  C   3.80975632708782     -4.84415471043678     -0.05851256945332
  C   4.71643477637872     -5.69115811375712     -0.85798348715044
  O   4.73145447332018     -5.78522934228051      0.55783187716398
  N   5.07728213360821     -2.62967228046514      0.00425074508393
  C   6.36525360551892     -3.07134070205911      0.09639376833018
  O   7.35282326719959     -2.36863308045289     -0.09808919019159
  H   0.89004880395299      1.22219368887386      0.07857345234848
  H   0.83499007516335     -0.26535338411363      1.05718279322034
  H   0.68562780893666     -0.37062145437503     -0.69087374371668
  H   6.51779943781522     -0.15790421136581     -0.34833019381474
  H   1.76946434793463     -2.84498879406248      0.28156153540032
  H   2.78157059101209     -5.18992046752503     -0.00125763913875
  H   5.60404654544848     -5.25610264191387     -1.30635765318682
  H   4.31924997352252     -6.56038575982300     -1.37495986450022
  H   6.42807014877969     -4.12520130742748      0.38855865073474
