38
Coordinates from ORCA-job 23155optt
  C   3.03287546271737      0.20729456888678     -2.36680837645386
  C   4.26806350603164      0.22005830735419     -1.47501082841876
  C   4.29121899691739      1.43851848578337     -0.57276913730931
  O   5.46080151696712      1.36942002172275      0.20760017199708
  C   5.65303456791038      2.37416625355072      1.13235212175861
  N   4.75227077397897      3.33987346550835      1.16717961074975
  C   4.96343726387786      4.35163427976407      2.10632460065164
  C   3.96095310756711      5.45727121432852      2.03199504181467
  C   6.06329523677963      4.31840578917444      2.93807318152307
  Cl  6.29891919911914      5.60310290133003      4.12294379144156
  C   7.02208331478968      3.29786938257911      2.89690115515898
  C   6.77575484836179      2.25763640253277      1.92691546984331
  N   8.04611227386758      3.19839444954083      3.88157510573094
  C   9.30561615743683      2.70111569651980      3.37723967904632
  C   7.60652110582443      2.61580859069992      5.15545141334543
  C   7.39618212907124      1.09991783738315      5.10885288266174
  C   8.54427199877367      3.00862332892537      6.29242866093288
  H   3.01023578210065     -0.67364457295177     -3.01041148030097
  H   3.00544171590908      1.09200153815999     -3.00671535426055
  H   2.11996731087668      0.20826160381329     -1.76702903848700
  H   5.17601553526937      0.21220629957388     -2.08350061311990
  H   4.29693469955990     -0.67910525681582     -0.85432468653967
  H   3.40438985600727      1.46481896993276      0.06884906121891
  H   4.27716513093889      2.36162522586940     -1.16143391713889
  H   4.01425800362362      5.95295865844933      1.05341409622736
  H   4.10108841778253      6.20685594752071      2.80762039046213
  H   2.94831696135935      5.04765544713491      2.11274068490428
  H   7.45641015525874      1.43134979780694      1.77877479261684
  H   9.57194239024217      3.27732874145312      2.49043597126937
  H   9.29533005919648      1.63776413138834      3.09064104133345
  H   10.09254452888670      2.83914901020227      4.12317624073660
  H   6.63920882599458      3.08232662189887      5.35553553683259
  H   8.34716541717596      0.57525443538767      4.98285342276153
  H   6.74103685786279      0.83631254146992      4.27729699360344
  H   6.94410656928406      0.74733700707928      6.04042771663293
  H   9.50768521305438      2.49886767469334      6.21497075266546
  H   8.10587494787903      2.73476571162732      7.25502643325490
  H   8.71547016174524      4.08579949072178      6.27440741085289
