33
Coordinates from ORCA-job 23153opt
  C   0.97854286671092      0.41573488628419     -0.73428974563671
  C   2.36519251016517     -0.02582321257999     -0.25860199678926
  C   2.27606225759760     -1.47142166698208      0.23399524890930
  C   3.34420427952909      0.05793429445031     -1.42963848023129
  C   2.80465034158575      0.91780791244994      0.87851726264706
  O   1.90527740019751      0.73557344577799      1.95622309819586
  C   4.26989703153505      0.74004425996790      1.30914505909084
  C   5.23307120814826      1.55156673071636      0.47634831569361
  O   6.30340166043815      1.14808801577484      0.03747628381488
  C   4.57646216728784      1.36533169876756      2.63467046843137
  N   3.79945042048087      2.42434236680974      3.05377125323488
  C   4.19258467333369      3.08188031547672      4.11899106411485
  N   5.26237412846481      2.86423448770363      4.89016235497045
  C   5.97632053951988      1.74896332416207      4.56492123339878
  N   7.03969529216688      1.46770836716331      5.41031030119076
  C   5.65985310553527      0.98304901587673      3.47395357447026
  Cl  6.54643623867530     -0.49064525879113      3.17485057524141
  H   0.62321875050214     -0.24012798106910     -1.53383526809678
  H   1.01261820717066      1.43697637354808     -1.12235127900145
  H   0.26457952806394      0.38641128236577      0.08880050506353
  H   1.91671354274326     -2.11569148219921     -0.57328883572309
  H   1.58847496771517     -1.54621775438317      1.07602528082735
  H   3.24938019326875     -1.84730242248981      0.55234779020821
  H   2.97123744612335     -0.54337196890868     -2.26374062847866
  H   4.33709937854719     -0.30496313668145     -1.16018789817663
  H   3.45401753254957      1.08857085438527     -1.77773891903660
  H   2.70653373017798      1.94734737949515      0.50305732049015
  H   2.17878608903783      1.39453465114328      2.61648660767812
  H   4.58481901380498     -0.30410735908147      1.29087927047771
  H   4.94196139070459      2.61605321853165      0.38894707963395
  H   3.56289961970490      3.91690090549336      4.42005458517692
  H   6.89993494927170      1.86383781624419      6.32762568595138
  H   7.34424953924173      0.50678064057798      5.41111283225883
