35
Coordinates from ORCA-job 23150opt
  C   2.75708399091667      0.29658659558530      0.77358890416776
  C   2.78295539060499     -0.40747490267371     -0.58309177567719
  C   1.44486778324098     -1.06365983335176     -0.88860297686156
  N   3.14981187564866      0.45573082831627     -1.70978286177298
  C   4.44495115160170      1.05243479729601     -1.68544847292103
  C   4.76719712686124      2.36632626583986     -1.18452451358004
  C   6.07537835733590      2.69205836925385     -0.91159206222643
  C   6.22993310364908      4.16539714538604     -0.64064418380493
  C   4.78808821024148      4.63707601159136     -0.44418975940194
  C   3.89474597581240      3.61648952993988     -1.19024338871656
  C   3.65559954411945      4.06308611546622     -2.64078385852322
  C   2.54529004751570      3.52424199873335     -0.47299286042826
  N   7.15933423374809      1.88359922359895     -0.98783561020299
  C   6.85973345024901      0.63356216848581     -1.45497675733725
  C   5.60037389341531      0.22270577208147     -1.79199148755305
  Cl  5.43107237972689     -1.38672415028552     -2.50145030500574
  H   2.65705757538043     -0.42890494015984      1.58647005616191
  H   1.91227048076273      0.98846109934515      0.82918524779947
  H   3.67876178410298      0.86261108263455      0.91918188165616
  H   3.54992325308376     -1.18551813249392     -0.54304015105373
  H   0.66718976730742     -0.29914122738855     -0.99121323479444
  H   1.14290694938441     -1.74003525957313     -0.08580453747271
  H   1.50158432951231     -1.62030551103928     -1.82442945404828
  H   2.42486256618024      1.13383476947710     -1.89761348744134
  H   6.70612604291653      4.64774737397945     -1.50402671584967
  H   6.87207836727770      4.36074715581368      0.22112611011646
  H   4.60378982315591      5.65711046881687     -0.79596145519577
  H   4.53785876012772      4.60492784161817      0.61976947263908
  H   4.60703285515245      4.27633499519687     -3.13275483738210
  H   3.02913795756632      4.96042990202857     -2.68229594630924
  H   3.16477270571466      3.26701890123561     -3.20646759702873
  H   2.67383285375937      3.12209668252733      0.53257484119500
  H   1.82488968039569      2.89644006240525     -1.00158181544284
  H   2.10746597106585      4.52506872426952     -0.39038407061751
  H   7.69104176246581     -0.04635992395686     -1.61117233708628
