31
Coordinates from ORCA-job 23157optt
  C   2.12499342191528      0.00696445490079     -0.62872721612925
  C   2.90094635682609      0.73566178241674      0.47083136823490
  C   1.96515812081827      1.68232618279188      1.22278854851430
  O   2.62085401543146      2.25103821654939      2.33155841147081
  N   3.45210195966526     -0.14915443771535      1.46421086088362
  C   4.55010990362445     -0.80361899638064      1.21897733181176
  N   5.20237715761541     -0.70938466717856     -0.00724591532040
  N   6.47497763181246     -1.16733622779138     -0.28842992882394
  C   6.92158407293531     -1.98348140311573      0.65416783051611
  Cl  8.46568888832590     -2.71832325133674      0.31062498751547
  C   6.25392305941585     -2.23455941928181      1.84142868715786
  N   5.08941451944773     -1.62500775175544      2.15010833722920
  N   6.80658208039087     -3.11256788372363      2.82142460392210
  C   7.81914080629823     -2.45693257822195      3.64316251506888
  C   5.79361624284397     -3.74489160443934      3.61972622646937
  C   6.23084728388857     -4.97323518095314      4.36078545377254
  O   7.33076857690886     -5.45256410995838      4.40351177631988
  H   1.67412803580300      0.71312914800537     -1.33244925022399
  H   1.33180516572862     -0.58693994464164     -0.17043330310473
  H   2.77048928714830     -0.67399751951382     -1.18434325064485
  H   3.67242630320004      1.37613075454976      0.00514790031821
  H   1.08528398943280      1.10808595971289      1.54588666627386
  H   1.62982629674302      2.49645782510354      0.57489857386229
  H   3.14484691459058      1.50855053976720      2.68155687256505
  H   4.90276523100111     -0.00633407004169     -0.65779547222941
  H   8.59503919192647     -2.04817900410078      2.99877727817529
  H   8.27340496171195     -3.18607853063127      4.31288095003668
  H   7.37815789879575     -1.63868035352362      4.23248254424865
  H   4.95213351066745     -4.03990276935992      2.98530214688075
  H   5.33699691770652     -3.07176982272898      4.36943561358293
  H   5.39861219738007     -5.44840533740361      4.92574885164592
