28
Coordinates from ORCA-job 23163optt
  C   0.83601439644681      0.22742531338596     -0.19372233670341
  C   2.33221931680112      0.15033280896043     -0.02919036696509
  C   2.79687296689788     -0.03932133066218      1.39226631377253
  N   3.12731445245473     -0.57421120763213     -1.01133981350860
  C   3.23167761233202      0.88106227612831     -0.99085785075575
  C   2.64109486908228      1.60479544722751     -2.15172508896133
  O   2.03236639495923      1.05511680241878     -3.06111673811812
  C   4.46371356604919      1.57742322711889     -0.54256971083122
  N   4.23645925082617      2.59793877089552      0.34388093899879
  C   5.29281050429975      3.35186666379424      0.67651172191653
  O   5.03243894480613      4.37782365076744      1.55823077463442
  C   6.57980978301940      3.17657980199570      0.24312801952318
  N   7.63348780195236      4.03757308824913      0.65123544127899
  C   6.82557189914856      2.10811588773617     -0.66260399874233
  C   5.72923558483364      1.34784765442396     -1.05209053379576
  Cl  5.98097586210122      0.10688848921378     -2.25520049494293
  H   0.37220918163748     -0.69228843116192      0.17630020584797
  H   0.55490172911507      0.36512619328113     -1.23722509838052
  H   0.43713903844023      1.06137284077061      0.38878511757500
  H   2.42990494896459     -0.99779953846868      1.77433101506547
  H   2.42381035161516      0.76332148374159      2.03002189289613
  H   3.88453188629038     -0.03818993405510      1.43690046084939
  H   2.55992012234953     -0.80118745665976     -1.82867195705471
  H   2.84866466397447      2.68599335568209     -2.16498222836206
  H   4.09120901987413      4.28632898030867      1.75076971937085
  H   7.32708177124659      4.62220637732318      1.41886398922651
  H   8.43935117692613      3.49998472690432      0.95336019096438
  H   7.80421290355564      1.94587405831232     -1.09028958479832
