26
Coordinates from ORCA-job 23169optt
  C   1.31546133202498      0.59056691917265      0.07587201968695
  C   2.56334687011501     -0.29522551117287      0.04663334549599
  C   2.62517431973811     -1.22554640962778     -1.08858155073674
  C   3.13469469311382     -2.09698064784838     -1.79525518604453
  C   3.64133395427732     -3.02100884059529     -2.70197573347214
  C   4.29237595229675     -2.53153092743802     -3.87884778999385
  O   4.35408700103287     -1.18442432726841     -4.08090087131576
  C   4.84499840462556     -3.36545240962791     -4.80585797714879
  C   4.78236899605745     -4.77223117462003     -4.61231289655903
  Cl  5.55144469012873     -5.79646934891226     -5.78535028908793
  C   4.12357079342009     -5.27352359886915     -3.49295968268206
  Cl  4.03692330452194     -7.01324834314726     -3.28066697249344
  C   3.53593143069653     -4.45385826095830     -2.54204808547810
  C   2.80716043241607     -5.00977047586825     -1.35604726855321
  N   3.73586050080817     -5.34797580155521     -0.25820021478276
  H   1.31609765013682      1.24429194606906      0.95271904337512
  H   0.41573638682142     -0.02561929907854      0.09814131086142
  H   1.26861593588464      1.21036376369921     -0.82063054047817
  H   2.60682865220416     -0.88045649409938      0.97165594337468
  H   3.45540357571869      0.34382563149710      0.05041648652616
  H   3.89171441268734     -0.77042570857786     -3.33619872028879
  H   5.32755280186815     -2.95526013863317     -5.68159875968915
  H   2.21122262669513     -5.87508729203350     -1.66784302140056
  H   2.12133233800786     -4.24815456330363     -0.98250676029058
  H   4.44904378378849     -5.97124462573667     -0.62239976343885
  H   3.24071916091374     -5.86355406146604      0.46274393461419
