34
Coordinates from ORCA-job 23162opt
  C   3.16059788612458      0.37890431099245      1.14023625473622
  C   2.38546562707418     -0.10121298882653     -0.09012746235157
  C   3.19239843171126     -0.01150216805655     -1.36463613835458
  C   3.24266673200524      1.18777142303586     -2.12443440471476
  C   2.82886814104419      2.47641709474389     -1.47638520048933
  O   3.94967995339430      3.17089584772780     -0.89293778739999
  C   3.72686459718453      1.18850843753079     -3.45530228690615
  Cl  3.37821620798354      2.63137628739253     -4.44500991698491
  C   4.38905762168579      0.16763001916336     -4.08058359205598
  S   5.08014328434749     -1.09189918052187     -3.05780150777699
  C   3.91540462528001     -1.19080750268171     -1.68808705183923
  N   3.87948641005215     -2.29200974959981     -0.99799503342911
  C   4.67616439914631      0.02889003461471     -5.55300120124425
  C   6.18086665902928      0.06681765391227     -5.86264327479275
  N   6.87298127681752      1.26569674562180     -5.39897001251072
  C   4.04928090025316     -1.24472800701013     -6.12423356402426
  O   2.65518729953506     -1.30032451468079     -5.90371323180467
  H   2.57704904332555      0.24957549372067      2.05578654281871
  H   3.42638620993200      1.43450704025664      1.05095998534346
  H   4.08000013369395     -0.20136926007539      1.23591493545222
  H   1.45132001279776      0.45719538021551     -0.18284285154405
  H   2.12189366466782     -1.14857929224538      0.05463794555987
  H   2.10231229792096      2.29356441534275     -0.68454297011112
  H   2.38132039363375      3.16435488699543     -2.19005868375017
  H   4.66927728680264      2.53265168241984     -0.86000559063227
  H   4.46971501692776     -3.00254474129552     -1.42124299215710
  H   4.20822661412591      0.87308108419967     -6.06328738194926
  H   6.32489272895680     -0.02122697429149     -6.94380378109064
  H   6.66930989291017     -0.80038585546319     -5.40849249903117
  H   6.78506189188431      1.31219711976140     -4.38731502313612
  H   6.37964398317922      2.08526961726825     -5.74074969453876
  H   4.54177102822999     -2.12299576633117     -5.68995779993706
  H   4.19529711382859     -1.27240461771677     -7.20686532931578
  H   2.50919263451388     -1.03631395611934     -4.98450940003745
