25
Coordinates from ORCA-job 23168optt
  C   1.90196490532941     -0.18592828434497     -1.32360558767305
  N   3.11165351811416      0.05762740426109     -0.58845252156867
  C   3.66150033173305     -0.73231654269411      0.38935468899968
  C   4.70641173343064     -0.02686446039551      0.91037289782519
  C   5.97979642538017      0.06223010551493      1.73993447303671
  C   5.94540061486078      1.60429620903467      1.94731249357036
  N   5.83147395350188      2.00681446092131      0.50121519366291
  C   4.69821244810387      1.17451133069571      0.16741805635322
  N   3.74642606653600      1.24508397438282     -0.72677592240258
  C   6.96691793143792      1.21773930048595     -0.02538679409365
  N   7.55816553499577      1.55627668945878     -1.12719739486312
  O   8.55325827825575      0.60933008583896     -1.51132482799894
  C   8.72096222622919     -0.64952640574291     -0.93774808371678
  N   9.60046911017910     -1.42010970370931     -1.46654592879520
  C   7.92544511552573     -0.95580498692106      0.20245191400916
  Cl  8.15473047547731     -2.46971894561970      1.01508226832274
  C   7.11205802707653      0.04228715858290      0.72655137910117
  H   1.71596085274917     -1.25883925401779     -1.35001960865509
  H   2.02817814444239      0.18249473665250     -2.34011962052349
  H   1.04357077879828      0.31559747130436     -0.86844320786587
  H   3.25655671591524     -1.71194381389201      0.58477336300477
  H   6.08216720728322     -0.57032570997221      2.61575629907509
  H   6.86737266090947      1.99991663899000      2.36823295768208
  H   5.06924486974217      1.95437583451860      2.49386436377656
  H   10.00910207399268     -0.93820329333302     -2.26470085026318
