28
Coordinates from ORCA-job 2316optt
  Br  1.12128640919777      0.21276948747245      0.28211322751459
  C   2.98227383267437      0.17661716367716     -0.21613903115176
  C   3.71364082827450      1.38752133274845     -0.11583077729502
  C   3.04327800929006      2.67583410624225     -0.29664669475982
  C   3.26854026537078      3.79783878867614      0.40415033750757
  C   2.50154477157996      4.97682090068215     -0.13594909422381
  C   2.07018213252379      4.48264987686996     -1.52656547937965
  C   2.03348150186727      2.95027588829354     -1.40014560047391
  C   4.20292936058246      3.85406355930629      1.57129306643878
  C   5.60623106681880      3.61204379892085      1.08447944455241
  C   5.96276682972807      2.52190978926380      0.39846129718677
  C   5.14533258992653      1.36013028641184      0.01466226994925
  C   5.86778629844439      0.21828761686441     -0.24138425265044
  S   5.20333883400509     -1.26161199965578     -0.84964773878281
  C   3.45813241616986     -1.13610580006923     -0.43148288232577
  N   2.76113897570081     -2.22564298815740     -0.41789081773125
  H   3.10410214390029      5.88933750292852     -0.18188158584072
  H   1.63451596950412      5.20452082356802      0.49937133881960
  H   2.83734075467683      4.76618200598187     -2.25079872713021
  H   1.12159286663638      4.90726798689361     -1.86063512009176
  H   2.29504696353589      2.43608736573352     -2.32686801839252
  H   1.03915200232106      2.60366452822933     -1.11345149751502
  H   3.93213884526404      3.06836909103937      2.28849320807708
  H   4.13156396487381      4.81422273238344      2.08579754992143
  H   6.36110546737780      4.36567839729230      1.28617167379475
  H   7.00948418095950      2.43727014329756      0.11849784625156
  H   6.94145703978401      0.20020564791478     -0.10790464353916
  H   3.35861567901169     -3.03020803280924     -0.58826929873015
