25
Coordinates from ORCA-job 23178optt
  Cl  1.43185627116118     -1.37783997276802     -0.51011700503200
  C   2.91404333699452     -0.50932257748454     -0.22482187261516
  C   3.38381167381240      0.41861163629232     -1.07599095533267
  C   4.61362455002743      1.05381962964698     -0.71028118073579
  C   5.28496848344157      0.68568165591466      0.48054830682311
  C   6.56300762994005      1.45981210131707      0.63009917197514
  N   6.58092435134154      2.57172150614267      1.61765350771428
  C   6.88973250039086      4.82154893423354      0.58646521733551
  C   6.33799746590768      6.02008219042525      0.45235454953512
  O   5.00847784227449      2.63376390096969     -2.48551763033834
  C   5.29701581240868      2.09478331540686     -1.40711239773980
  C   6.13526089107380      3.53617937480199      0.58690795289905
  C   6.47835318495465      2.48985667839155     -0.52242560207317
  C   4.79527214321994     -0.28941651034148      1.36206619276436
  O   5.27682800035813     -0.70287626922822      2.42486837728390
  N   3.55242014881446     -0.85606910597278      0.93993603998257
  H   2.85784659958129      0.67469157020417     -1.98308705675433
  H   7.44244061117592      0.81833962245152      0.71303284123682
  H   5.93093012552064      2.43728325205099      2.38499508911838
  H   7.96652171944271      4.72132816822203      0.69834829470771
  H   6.93336152167751      6.92487357538938      0.43546171656868
  H   5.26471206798726      6.13007222634159      0.34264630154525
  H   5.05869154874332      3.73726968826088      0.59856475956353
  H   7.38439812652349      2.72092279254693     -1.08005365440272
  H   3.17050339322639     -1.57011738321506      1.53745903597057
