22
Coordinates from ORCA-job 23170optt
  Cl  1.48075674809445     -1.32754222340994      1.13383096209721
  C   3.00439284373584     -0.67816225857855      0.51513425654160
  N   2.94604621101468      0.60253860143293      0.21234018334234
  C   4.00373913012593      1.24027026835773     -0.34515691304901
  N   4.09644296654109      2.49117543939445     -0.58683503396316
  S   5.43617641881199      0.29215122341335     -0.91324302583974
  C   5.17438927943589     -1.15664758852775      0.02711056184598
  N   3.98069372724472     -1.54647425718256      0.49388873297975
  C   6.29350547311688     -2.14675698885974      0.09492105594784
  C   6.35653018538430     -2.90641335985738      1.43804009726316
  C   6.04275273517809     -2.16637484469467      2.64671751846365
  C   5.81053873029586     -1.57136267296932      3.65884094411218
  C   5.45593281739295     -4.10691953736042      1.17900078471122
  N   4.84473881131697     -4.86837064043502      1.95591574182804
  O   5.46311304394846     -4.35009154597158     -0.16924547958499
  C   6.02176350710493     -3.30177114395067     -0.86355163761049
  O   6.20116351218728     -3.36310012190975     -2.03641737054389
  H   3.22259989571734      2.92369501995147     -0.28477689229323
  H   7.23598926156049     -1.67308700890329     -0.17470156169122
  H   7.36611860708962     -3.32174294054394      1.53826381486397
  H   5.57586753478616     -1.01779764239423      4.53550229502245
  H   4.94274855991591     -4.52421577700104      2.90942096555631
