31
Coordinates from ORCA-job 23175optt
  C   3.77197756384560      0.73063071466974      0.57407110653090
  C   2.54914073853197      0.00254693801801      0.03174213922792
  C   1.52374699248455      0.95702482482362     -0.52778631355002
  O   1.57952120878622      2.16097118959740     -0.45301131462862
  C   2.85701581859475     -1.01248926778300     -1.05755113339056
  C   3.46477202497345     -0.54167088854922     -2.19927194533267
  C   3.78057396555492     -1.42039968628459     -3.29602852944121
  C   4.42810847172700     -0.96909793725854     -4.45178224588273
  C   4.98855137118860     -0.52471292374275     -5.43178217468489
  C   3.36024446452368     -2.75569276874991     -3.07657756598418
  Cl  3.67883002984432     -3.93197140100048     -4.36115649556704
  N   2.76448899654523     -3.21374656565360     -2.03745351100295
  C   2.48214340346459     -2.37025085176266     -0.98089047197031
  C   1.86772343454772     -3.03878862680793      0.22878578629112
  C   1.37943182235708     -4.44536588963852     -0.09918970813773
  C   2.86254237891031     -3.11529692162223      1.39660131044451
  O   0.71892972179376     -2.26028793805913      0.64979107567768
  H   3.48228189858429      1.43683765716582      1.35338868311725
  H   4.27167857355052      1.29319187246639     -0.21358766589620
  H   4.48289210008726      0.01244714692390      0.98511690925724
  H   2.02996346207410     -0.50704701419156      0.84416225882736
  H   0.67219919562052      0.45719226676133     -1.02595071008809
  H   3.72143978396023      0.50727248283389     -2.28910045995721
  H   5.47286700686622     -0.15037534149759     -6.29891691467714
  H   2.20234860971339     -5.08860798915223     -0.40354069688852
  H   0.66193283387827     -4.40718376992232     -0.91683941114535
  H   0.89881973650495     -4.87062239415192      0.78836105641647
  H   3.73036068628955     -3.70461891330910      1.09749188402439
  H   2.40575590586454     -3.59309152281059      2.27145635682171
  H   3.20812154322158     -2.12221355136954      1.68277831462044
  H   0.32459625611078     -2.71458292994268      1.40267038696844
