27
Coordinates from ORCA-job 23171optt
  C   1.09025756483572     -0.00172929671750     -0.24187708877778
  C   2.59279585944576      0.02368768608094     -0.15589415712546
  C   3.45293932009936     -0.75929806714381     -1.12346831002260
  N   2.90909655134963     -1.49203291586137     -2.23834891615106
  C   3.42515008215513      0.74365034200200     -1.18157835861947
  N   2.68759315915443      1.31459425639437     -2.29887823448840
  C   4.58169838087089      1.55356235477047     -0.68729149173807
  C   5.84792479644160      1.34498596554507     -1.12394559646639
  C   6.33398923320379      0.33314200915747     -2.10534150529815
  O   6.88381061117462      2.13352168169211     -0.67853664429395
  C   6.61678133794867      3.23872114493373      0.15263575496655
  O   7.57671070504323      3.92730211345882      0.45449644816113
  C   5.25827603676112      3.36824992249983      0.51089383678785
  Cl  4.86548303558892      4.72790561523575      1.54093027023713
  N   4.24468825502735      2.57047231425942      0.15812323303265
  H   0.67966611126008     -0.82370834647051      0.35053064437373
  H   0.75326071224337     -0.12063983693827     -1.27083845175664
  H   0.66878374238764      0.92961566544689      0.14214616558382
  H   2.99059727388533      0.11614806361644      0.84738640745773
  H   4.35849217588743     -1.19110896477841     -0.71521291380420
  H   2.35615224326426     -0.85193115735865     -2.80007501817422
  H   2.29428664487918     -2.23353503061861     -1.92281619279376
  H   2.25521606772968      2.17368982278626     -1.96960612281959
  H   3.36287402521982      1.60049653634572     -3.00183723800511
  H   5.51467779798893     -0.23752767403960     -2.53812217911366
  H   7.03752394534857     -0.36289411502507     -1.63594272022870
  H   6.87827433080541      0.83565991072650     -2.91053162092338
