29
Coordinates from ORCA-job 2318optt
  Br  1.58041302636385      0.24748279252447      0.09857152288265
  C   3.91577458704286     -0.16761109019622     -1.03250410399239
  C   4.71887388894882      0.75351796140442     -0.47251820625489
  C   4.48309372956417      2.06132195742592      0.17980928883943
  C   4.64141325335611      1.93057441857959      1.71033540025229
  C   5.56586717026401      3.11594533689932      1.82085197106391
  C   4.69257866873524      4.18093815031189      1.05439803054599
  C   3.68070952961952      3.36516743280805      0.12310502346188
  C   3.56443406911138      3.96077166913853     -1.19992691763477
  C   3.50997128731927      4.46057597248922     -2.28889728395782
  C   6.89764727240754      2.63372940469876      1.12195362386683
  N   6.94060894998083      1.24722474240847      0.54522086911187
  C   6.09816137847846      0.41101683572719     -0.19923161311978
  C   6.55852598720492     -0.81935339220740     -0.60775322415385
  C   5.70261625479006     -1.75331417813589     -1.26179528128545
  O   5.99551674619322     -2.85147912940477     -1.67596847207298
  O   4.36701168764692     -1.34794679292151     -1.43297228710099
  H   5.38647744635230      2.52637253738921     -0.20108184807747
  H   5.06277747177680      0.98559458841547      2.03740548777355
  H   3.67603140918033      2.06987550255388      2.19851031651281
  H   5.79517973968353      3.46929602464002      2.82845426763883
  H   5.29679249631094      4.84625216899498      0.43456806651374
  H   4.14983671487747      4.79426836956503      1.77428297312465
  H   2.69019185873678      3.26238102294989      0.56809864665998
  H   3.44104914247454      4.87562633836652     -3.26457662901999
  H   7.69553639484244      2.62513415683817      1.86691495010682
  H   7.19305721329634      3.35984509367717      0.35720377194528
  H   7.83792452843926      0.81872807275524      0.69756529256680
  H   7.57192809700173     -1.14993596769578     -0.42402363619698
