27
Coordinates from ORCA-job 23184optt
  C   3.46978012427822     -0.06566756837029      0.80903214072663
  C   2.55921957763907     -0.60785836646937     -0.28988595872405
  C   3.32703236631135     -0.99893782331572     -1.52836721336384
  N   4.22422747487645     -2.14374346167354     -1.48991080693869
  C   2.99538973462619     -2.22212111463694     -2.28716256842813
  C   3.12243853140150     -2.21462291272845     -3.79921863774128
  C   2.40043627371457     -1.02485963619244     -4.38568438703572
  N   1.53773984399420     -1.22699822580669     -5.34533090414393
  C   0.89557881742333     -0.14235018242097     -5.85045214214188
  Cl  -0.26075198088498     -0.45148450573766     -7.12890411525379
  C   1.06755029400007      1.16581337047255     -5.37520994670321
  C   1.95149260306718      1.39339765501441     -4.35516340848561
  C   2.67049131164809      0.26368031548509     -3.82831433483463
  S   3.81361225355328      0.40656521729118     -2.57958145824122
  O   3.55657104441171      1.62875670734807     -1.83361612424638
  O   5.18275700349907      0.16528184213595     -2.98481817897981
  H   2.89510481094504      0.18502948895357      1.70212320485573
  H   3.97962763912838      0.83051943543878      0.45887185064709
  H   4.22474193679000     -0.80432164451072      1.08806962160546
  H   1.81464693117556      0.14179189212305     -0.56223409901869
  H   2.02138594022850     -1.49426494891030      0.06418482992448
  H   4.11332346011338     -2.62418794746363     -0.60052758010849
  H   2.17224636985627     -2.80379766645803     -1.88233132038228
  H   2.70987470860675     -3.12240483595809     -4.23677451886967
  H   4.18701233308751     -2.14903157517317     -4.04094964949915
  H   0.50031015113866      1.97556602006962     -5.81508960082715
  H   2.11416044537060      2.38025047149375     -3.94575469379175
