27
Coordinates from ORCA-job 23198optt
  C   3.32151767646813      0.08613053462964      0.84188969572961
  C   2.30487518455397      0.02883193516542     -0.30933540122033
  C   2.81780275819666     -0.69923304291342     -1.53027345860865
  C   3.78920815081746     -0.06255370147821     -2.31487530339179
  N   4.15975680583537      1.26919422434035     -2.05914849980400
  C   4.35207875229413     -0.71721872464421     -3.40772588633184
  C   3.94269632977733     -1.99426533329208     -3.73577009633206
  C   2.95356725308237     -2.60539494058062     -2.98529223925518
  Cl  2.47138304523528     -4.21482289032879     -3.48347875015274
  C   2.35693703628534     -1.97833873384522     -1.89032423978202
  C   1.28086969332171     -2.66430594381275     -1.07564267490309
  C   1.78373787140807     -3.17045215736208      0.22879281143806
  C   2.82283619604622     -3.28185947734049      0.90795651760634
  C   3.91770548164805     -3.46536216647097      1.74714122491409
  O   4.34470976375869     -2.64204595385258      2.60986901952371
  H   2.97023835750185      0.76838006362276      1.61920785368722
  H   4.30816819637563      0.42447736246927      0.51697688491727
  H   3.46042871745183     -0.89586162462755      1.29436285805659
  H   2.01775561509782      1.04398103832843     -0.60843318322915
  H   1.40620061904430     -0.45173350241675      0.07019104288455
  H   4.07828364848962      1.54367239364932     -1.09277243104733
  H   5.07355671644518      1.50056492385302     -2.41843302294745
  H   5.11383624784157     -0.22040657761217     -3.99803209995728
  H   4.38064851900222     -2.51778997581635     -4.57474747427373
  H   0.85983260603001     -3.48716815968987     -1.65164981938146
  H   0.45486186641985     -1.96620685834827     -0.91585490555492
  H   4.44150689157107     -4.42721271162566      1.61240157741562
