26
Coordinates from ORCA-job 2319optt
  Br  1.37713192978779     -0.99171277980338     -2.33271173748365
  C   2.76435242417353     -0.52847000993328     -1.10601139915163
  C   3.47112505282838     -1.52924190475039     -0.47835245214268
  C   3.18008934839690     -2.94420265349668     -0.10266516710847
  C   2.47668988457670     -2.86984644982889      1.30422260203036
  C   3.64827799374606     -2.44364705256077      2.24738091163136
  C   4.81413531287144     -2.22541762533359      1.26797161262899
  C   4.62157004996531     -3.39338567217100      0.27068285369882
  C   4.78153940915924     -4.72315179774184      0.83562341469484
  C   4.93434472707230     -5.82147847853526      1.29339074372599
  N   4.49706590021595     -1.10260475795890      0.39815557382896
  C   4.58183769499844      0.24436861571802      0.85682233599852
  O   5.26266768272032      0.44602891174910      1.86329006849367
  N   3.93186075717435      1.17994181914571      0.14286873206685
  C   3.07255363486142      0.79314974883622     -0.84043834296766
  C   1.79904483693789     -4.09865449756804      1.70046524199804
  C   1.21302403104384     -5.10007000476001      2.00794729785916
  H   2.64490065055788     -3.53924447710391     -0.83661351200626
  H   1.72318386536675     -2.08320329725899      1.24831171044587
  H   3.87867372725730     -3.23794660861715      2.95770819486577
  H   3.43522183476424     -1.52580504480233      2.79156762989567
  H   5.78961677747443     -2.11909503494764      1.73089738861702
  H   5.28556589026290     -3.27505454620355     -0.58629604297853
  H   5.04406723530616     -6.79425102010412      1.70651709829354
  H   2.59867242612314      1.58272881167092     -1.41273946674077
  H   0.70278692235724     -5.99373419364019      2.27200470980620
