35
Coordinates from ORCA-job 23194opt
  C   2.25519456695176     -0.77917705923601      0.74844524910871
  C   3.77905239752832     -0.82124655213565      0.74057574636427
  C   4.38356212306726      0.45637424966377      0.17690376477741
  N   3.90489989641125      0.88717772895022     -1.17051620298062
  C   4.56170325222270     -0.10743996591784     -2.09728449842168
  C   3.65554070928848     -1.26633109264887     -2.49058191024025
  C   5.88619096690820     -0.49748384077243     -1.37884504240093
  C   5.89145227812609      0.45573157123407     -0.14891580125173
  C   6.88051788106823      0.13248958056832      0.94316170154245
  C   5.96397661917401      1.84745276945348     -0.74431772266679
  N   7.05143932022001      2.65182492879324     -0.85441014740441
  C   6.75758065459083      3.76330955617018     -1.62143002834506
  C   7.86943713118814      4.76263543998607     -1.77942944370919
  C   5.53273590944089      3.92346572603269     -2.21720280868800
  Cl  5.27543663432411      5.36453640821030     -3.21335740497063
  N   4.45561478852592      3.08856372113426     -2.17101917352943
  C   4.75547418510634      2.06544551581848     -1.34510385210152
  H   1.82861973697148     -1.69171311930355      1.16999927378100
  H   1.87476836044628     -0.64306508153489     -0.26396960916070
  H   1.90103408295500      0.06848641008965      1.33898605548658
  H   4.13174935855364     -1.70502567310962      0.20785495010812
  H   4.15134968338542     -0.92267376071150      1.76527375914730
  H   4.15258496510099      1.27016194938205      0.86917064487428
  H   4.77662842651466      0.44457503701010     -3.01253547852880
  H   3.37635708490137     -1.90057039587882     -1.65026963290025
  H   4.16052526801345     -1.89417354971410     -3.22945958103422
  H   2.74066149279241     -0.87589028962634     -2.93875372886834
  H   6.76775094943973     -0.32810268603277     -1.99797379756515
  H   5.88204446196071     -1.55002716211146     -1.07360745490159
  H   6.77283743264277     -0.89929129970509      1.29041492221087
  H   6.74140775772893      0.80522829822580      1.79283616599545
  H   7.89917727291890      0.27745491391963      0.57859083781690
  H   8.71761441559514      4.42462821132027     -1.18599729047343
  H   7.57041402299931      5.75799425274378     -1.44343462818482
  H   8.18066591293709      4.86067525973252     -2.82279783288577
