23
Coordinates from ORCA-job 2320optt
  Br  0.81599931980540      2.63852659627053      1.56756072992638
  C   2.62424443722347      1.44652433831989      0.26458540995709
  C   3.48471725308626      1.02219549481168      1.17522648803511
  C   3.77611429844135      1.20741272665701      2.65420635521852
  C   3.15406790680328      0.19435724064091      3.56296326539535
  C   3.98287856138987     -0.79891198756630      3.86383760921634
  C   5.35450545312269     -0.64519140916311      3.25333201303999
  C   5.19813274185799      0.59211707450473      2.35195100222429
  C   6.32191725950944      1.51266341212802      2.36705807653551
  C   7.24486545068658      2.27606536245955      2.39143029334623
  N   4.67036763754649      0.29119149700529      1.00295058779572
  N   5.36257083056161      0.22700819886257     -0.13480133462406
  C   4.70848801514441      0.47732485633984     -1.20623246223668
  S   2.96609575984959      0.88803636077937     -1.31927138997497
  O   2.87493160397456      1.93157277163949     -2.31183906975838
  O   2.25814150407505     -0.33869472385144     -1.60433181668361
  H   3.72553171256460      2.23981198965591      2.99110043080799
  H   2.12323565248757      0.28569336830769      3.87671878612398
  H   3.72109384907394     -1.65035553946744      4.47929191803753
  H   5.65385220477871     -1.50856023305946      2.65535864909899
  H   6.12322373542830     -0.48480274197287      4.01342658036393
  H   8.05890964764216      2.95941083684770      2.40001617740289
  H   5.24211516494653      0.47360450985041     -2.15053829924823
