27
Coordinates from ORCA-job 23203optt
  C   0.98326815168752     -0.15493429840225      0.09702990296909
  C   2.51959592358327     -0.07523243969856      0.02132813128928
  C   2.88936825053601      1.23563444246220      0.73751684386999
  C   2.95976919612349      0.14852577919553     -1.43653363569616
  O   2.30081522663065     -0.67966542880060     -2.40434664562975
  S   2.65533185460659     -2.23117458336272     -2.44049661631849
  O   1.90335542943172     -2.70967579934375     -3.55513703040090
  O   4.07512756462560     -2.34173131413394     -2.38727096660638
  N   2.00584780103352     -2.84296916698801     -1.09894650990883
  C   2.51127058848692     -2.62919018263696      0.22948307140666
  C   3.12651444293080     -1.35827448086518      0.60738395052269
  C   4.19114507708409     -1.49832549828042      1.48524187823261
  Cl  5.30599286514215     -0.14581119454142      1.83463214350759
  N   4.56627975505700     -2.57487977637194      2.15278450553301
  C   3.79619006001957     -3.68823700322038      1.98272778862186
  C   2.85145379916518     -3.75558158060127      1.01121305220428
  Cl  1.96176973937030     -5.25509631594480      0.77685965286617
  H   0.54221041569825      0.71708448547713     -0.39227766206106
  H   0.68114745453285     -0.15607559103488      1.14581158100528
  H   0.57674127393950     -1.04471548595073     -0.37243731603605
  H   2.18986015517996      2.01030206061076      0.41265406172025
  H   3.89688395485418      1.57138581611175      0.50582969315820
  H   2.81058801462438      1.12639929326152      1.81779372205901
  H   4.04007770308144      0.01696444064261     -1.52462848859260
  H   2.68755950018027      1.15775915112788     -1.74907207108323
  H   1.03583813014162     -3.09727502346323     -1.22943012055845
  H   3.98499767225306     -4.52521030524826      2.64428708392592
