22
Coordinates from ORCA-job 23211optt
  Cl  4.98506848463836      2.86461819107424     -0.23077118187520
  C   4.45055008882128      1.20315178893024     -0.01657870725418
  N   3.17458041834761      1.05109636746526      0.24074078356911
  C   2.72616801445381     -0.23002753704202      0.41000021372237
  N   1.52500959985568     -0.57726230060642      0.65598874239249
  O   3.61296039514720     -1.28640590846000      0.31742028963093
  C   4.94206616735934     -1.09014332251361      0.05135803017362
  C   5.40481557007739      0.21220042351079     -0.13375326322281
  C   5.69141145160884     -2.27620116896858      0.00409695394350
  C   7.07596510808065     -2.45361002119811     -0.26452224818284
  N   7.34261493820323     -3.81683808737713     -0.19328425812950
  C   6.18714402517860     -4.49081562299479      0.10616212855589
  C   5.16560792708877     -3.58680937193832      0.23128000816700
  C   6.17619809013697     -5.90154359579903      0.24521969459374
  C   6.18031131303590     -7.09725641804312      0.36160398541328
  C   8.09768855917281     -1.55186589063945     -0.57041373385623
  N   8.97440031396969     -0.83877142269303     -0.82722242182822
  H   0.97641168915212      0.27631955808480      0.70212692315092
  H   6.43873724864371      0.42589993376429     -0.34663239169197
  H   8.24070501760876     -4.23875611091263     -0.34106121851293
  H   4.13993850900506     -3.81540894644001      0.46318390056714
  H   6.17264707041419     -8.15457053720336      0.46705777067384
