29
Coordinates from ORCA-job 23210optt
  C   1.06768536251931     -0.65834089952639      1.25871492219086
  C   2.35533773996795     -0.30157195731796      0.50940363518015
  C   2.88826528724290      1.05870571764059      0.89298371353662
  C   2.62908161738608      2.19846579754145      0.09034659824851
  C   1.68173309477928      2.05825026576822     -1.08511446488270
  C   2.31880695399806      1.50645817478315     -2.28572912801788
  C   2.86711414407299      1.03332734477211     -3.24586114096851
  C   3.57328731869210      0.40753199230877     -4.33544791023326
  C   5.04389128899994      0.23006914592047     -4.22637500696416
  N   4.15887781811789     -0.92393509416485     -4.13001541122436
  C   3.28686295036612      3.41708588013552      0.31851547002739
  Cl  3.18836184803428      4.68463982085985     -0.91949576591478
  C   4.07047008990726      3.72129978015261      1.39351209822415
  S   4.12613706448544      2.66983341600270      2.78186366017869
  C   3.61576051772482      1.07787799508699      2.11033460334656
  N   3.86313209116966      0.01870025301917      2.82679599939186
  H   0.72186462324326     -1.66544309803121      1.00854557682580
  H   0.26699697151233      0.04649471903835      1.02047825882712
  H   1.25703458970405     -0.61225049652705      2.33165663713230
  H   2.19405665254067     -0.37228339622222     -0.56816753964013
  H   3.11325593658997     -1.04315660900192      0.77039584120080
  H   1.25251124071009      3.02697386265006     -1.34095432854383
  H   0.84824557937247      1.40630033562172     -0.81006268178360
  H   3.14803672313573      0.54154395266941     -5.32264242721644
  H   5.50491257946124      0.60614110420460     -3.32247459994934
  H   5.65190642566911      0.26457131327118     -5.12166716090804
  H   4.03447776113725     -1.18051832401201     -3.15526498330273
  H   4.67027038062985      4.61706454276276      1.43580715406700
  H   4.40662534882982      0.26016446059392      3.65091838117197
