28
Coordinates from ORCA-job 23223optt
  C   0.93549004748220      0.32752572629675      0.22214523715618
  C   2.41165620916024      0.35083156116038      0.02491287067151
  N   3.12198990984059     -0.69996220030188     -0.37609462447674
  C   4.41966348565205     -0.30324210892256     -0.36214294586273
  N   5.47268904294461     -1.18934313263633     -0.69360627831821
  C   4.53275550355446      1.00720591615680      0.05868692745874
  C   5.59051967445232      1.91236012698332      0.34296218736413
  N   5.32921761336426      3.16941722375664      0.78744535972087
  C   4.07692303099717      3.51803542344539      0.87810289194057
  Cl  3.78044689031592      5.19785107392252      1.39944099377438
  C   2.92350943045958      2.74783254587710      0.68978257157303
  N   1.64522341238132      3.24980882086690      0.32671563142740
  C   1.59874902006999      3.99017232342490     -0.90840935472398
  C   1.52314024278403      3.19781375129128     -2.17175287862038
  C   0.31788074323410      3.95590677639283     -1.68483831778416
  N   3.21543361651954      1.41216043518464      0.26833523608862
  H   0.61138554616473     -0.70927725249341      0.14345836606279
  H   0.40068497853314      0.93016577295503     -0.51506941972008
  H   0.66240092342948      0.72296698537533      1.20188727314327
  H   5.07228062697680     -2.02462197272848     -1.10199435026258
  H   6.10300990040462     -0.77113254464560     -1.36822209148215
  H   6.62189248456389      1.60266544974518      0.25701787255121
  H   1.22981917209484      3.78146234535510      1.07913849817950
  H   2.18089003512835      4.90746263246233     -0.94954349320145
  H   1.51924123812241      2.12144183108199     -2.07142521460715
  H   2.04961341939259      3.57720187839711     -3.03609979514865
  H   -0.48569727738707      3.37680876109026     -1.25008316473056
  H   0.01319107936376      4.84348185050639     -2.22274998817339
