26
Coordinates from ORCA-job 2322optt
  Br  1.73406915836489      0.14393335815931     -2.15672828648081
  C   2.65583739044180      0.16126370183788     -0.46123485929896
  C   2.80822447289989     -1.03557864355061      0.19639822706526
  C   2.08493555825391     -2.34635444887651      0.03765040643009
  C   2.99636522987463     -3.26284084138355     -0.82259610986598
  C   4.21235148235412     -3.53484948141264      0.10752998761467
  C   3.86546574759010     -2.72887054398950      1.39135852889835
  C   2.32988488889525     -2.92693664927188      1.45620253659574
  C   1.90949754002569     -4.31647316589091      1.61978495519040
  N   1.58267950107321     -5.40931084489571      1.74915904025548
  C   3.92357166390135     -1.27093159139182      1.00138564479977
  C   4.99254353873870     -0.37746966604441      1.05564649300734
  C   4.91766359771632      0.86688106555375      0.39626086148528
  O   5.78924204372298      1.73249895802470      0.33539424825863
  N   3.62102462699900      1.16134282188619     -0.24350010510473
  C   3.32393583703261      2.48684116972592     -0.46015394349455
  O   2.24335315205443      2.90253498444053     -0.82541471470120
  H   1.04971112966927     -2.29167986765506     -0.28856517200354
  H   3.27083249877585     -2.75469541563032     -1.74528182032683
  H   2.48415951129999     -4.19183071027847     -1.07940498063614
  H   5.15286951064324     -3.18187277578246     -0.31191949477643
  H   4.30614970595612     -4.60041129461810      0.32745854843145
  H   4.42442128711231     -3.02185849755855      2.27849043555589
  H   1.86755701913654     -2.31833522667483      2.23224075736555
  H   5.91306267497768     -0.59290175826075      1.57959945308601
  H   4.18759123249005      3.12690536353783     -0.26076063735076
