30
Coordinates from ORCA-job 23237optt
  C   3.87570658017859     -1.89646707143027      0.08796390144353
  C   2.71972865474493     -0.93599963828061      0.34851636317820
  C   2.92981988988749     -0.08861709553601      1.59101445795842
  C   3.93921238522697      1.03661759244914      1.39386987735798
  C   4.82733604883524      1.40440375339277      2.59155536724843
  C   4.09006553578496      1.87015270491417      3.80233593302395
  C   4.06492325855104      3.24587700880790      4.22124018260668
  C   3.34908427530515      3.56173087959723      5.34176705638075
  Cl  3.34242116501027      5.27323344777444      5.84496824936604
  N   2.63856620028275      2.75514757829718      6.12568821072163
  C   2.66400373620619      1.43547947907623      5.70413860266161
  C   3.35444315129314      0.97253147435511      4.61227819533633
  C   3.29443690564529     -0.48034356232401      4.23356605596580
  C   2.64604901772068     -0.76566645677229      2.88482799050802
  N   1.67491339107713      0.16581452559077      2.30951110353798
  H   3.70213642007563     -2.49850750498572     -0.80600842759854
  H   4.00169435161134     -2.57491759932427      0.93448082132089
  H   4.81822641806803     -1.36293320101537     -0.04720524448621
  H   1.79116870212943     -1.49572958557337      0.47873789024215
  H   2.57428549917886     -0.27565879548018     -0.51336705914684
  H   3.38649691229249      1.92664202870793      1.07181285887462
  H   4.58624614060996      0.75461060509163      0.55446934000579
  H   5.51880026281736      2.18833388280553      2.26542977590350
  H   5.44988686981924      0.52471504178085      2.81739008907802
  H   4.59525543019939      4.01535809040108      3.67547652214567
  H   2.08450270777726      0.74250051665244      6.30724074146072
  H   2.71950667411947     -1.01484621730385      4.99511298091309
  H   4.29785282456493     -0.92217930413920      4.23067609571640
  H   2.33208602872583     -1.80452301501242      2.78861554373839
  H   1.75714456226089      1.04324043748316      2.82389652453693
