25
Coordinates from ORCA-job 23242optt
  Cl  3.69644685691733      1.61459244291404     -3.02746932278786
  C   3.96241980718111      0.77070425511823     -1.49578730312527
  N   3.53397419874380      1.41383000420322     -0.40615779121615
  C   3.73105874793630      0.79718031143654      0.79266434126371
  N   3.33275280179017      1.23599448186333      1.94125692615664
  N   4.44117891435305     -0.41585073116662      0.81757079081883
  C   4.76239874291312     -1.12874734434327     -0.33857773902825
  C   5.43663218573715     -2.43490488052738     -0.18528838842847
  C   4.53509998296661     -3.56502162470107      0.36032405640372
  C   3.46289205781743     -4.07498256658254     -0.54065237483819
  C   4.68286665194879     -4.92915026871546     -0.30797960615300
  C   4.56599619554379     -6.13948570308890      0.45547841298149
  N   4.48096204387857     -7.11510340503263      1.05473313524070
  C   4.28464823013714     -3.54282751042265      1.77724623643433
  C   4.10199547196499     -3.49237138381311      2.96076561400434
  C   4.54916786974213     -0.47942962511754     -1.54989797787958
  H   2.85495634778538      2.11689691104837      1.77556095919000
  H   4.42041393488982     -0.88182522767435      1.71055547206477
  H   6.30406147831646     -2.37188920117324      0.48867686894232
  H   5.79868021293008     -2.74823233662890     -1.16759550701645
  H   3.37900301246949     -3.57820921635262     -1.49892753130923
  H   2.53923712857404     -4.41047949339065     -0.09300084888993
  H   5.42149447770097     -4.97810692579016     -1.09761360321617
  H   3.92674885806934     -3.43313414898842      4.00756154929031
  H   4.84191378969285     -0.92944681307414     -2.48744636890260
