29
Coordinates from ORCA-job 23249optt
  C   2.60725102964720     -1.68982627010125     -2.76141403140795
  C   3.58513002415435     -0.55536288547480     -2.92302233145185
  C   3.15315843657685      0.72080529364645     -3.58705558885785
  C   3.42257707652034      0.69393273986829     -2.11358515074006
  N   4.60078057946413      1.32658297455480     -1.63678694825043
  C   4.57021099780330      2.67386692295063     -1.28531335118170
  N   3.64199000571740      3.44045577792295     -1.80585706361437
  C   3.66536615491377      4.74704319633246     -1.49120977876078
  Cl  2.41274454612565      5.76283426710287     -2.21322970167793
  C   4.59462110074074      5.33199672444251     -0.66092738261442
  O   4.59343095070628      6.67433938231060     -0.37911782008463
  C   5.57145389735470      4.52396155761704     -0.08470977567403
  C   5.57650211889462      3.13098019356649     -0.37308289423393
  N   6.43134152079510      2.20843696254955      0.12907772829262
  C   7.35737780434489      2.52654264050373      0.99422651465591
  N   8.13389723479878      1.49009626087463      1.58804356995621
  H   2.56929711076314     -2.31401293948755     -3.65780883742416
  H   1.60160086347958     -1.30276815426151     -2.58510493135987
  H   2.87116733454753     -2.32839636038054     -1.91494273223801
  H   4.61457716373321     -0.84583987278782     -3.09573042215915
  H   2.12268954257936      0.80123219374566     -3.90793346868628
  H   3.87292961133759      1.26318025022028     -4.18204326427242
  H   2.54101369508455      0.74768078305104     -1.47585916671156
  H   5.17610936971934      0.80457316232645     -0.98844299770955
  H   3.84832046060410      7.06467739304565     -0.85110182329307
  H   6.29785255602382      4.98143923912405      0.57060471944332
  H   7.49344151480593      3.51153759760642      1.43188267744596
  H   7.95527867070229      0.63110071601539      1.08042789232367
  H   9.12788862806132      1.68591025311549      1.54601636028634
