28
Coordinates from ORCA-job 23245optt
  C   0.75486666508922      0.04970202780650     -0.57176769623611
  C   2.24574925310887     -0.09161324440033     -0.31635173838029
  N   2.96589598274190     -0.20545888437411     -1.58674831812086
  C   4.36929085289255     -0.42521665661585     -1.45108899587232
  C   5.25529934920000      0.68546128630168     -1.48136946213323
  Cl  4.59113804420070      2.29525389981543     -1.68665616899745
  C   6.65602926576132      0.63169112642849     -1.34975614098824
  O   7.46995710063023      1.54719018311364     -1.37671071669794
  S   7.32963964302336     -1.01933265220961     -1.08791142120823
  N   6.09271597917720     -2.12191388924367     -1.11336887140660
  C   4.82995217944781     -1.73651605837866     -1.28650248459716
  C   3.82934727383326     -2.86208301756934     -1.28165771052911
  C   4.29322546585427     -4.18659108826958     -1.91733341307471
  N   3.86149551920170     -5.23261547777515     -0.98394094507531
  C   3.52109420891242     -4.61833272800057      0.07081802572007
  N   3.17228742120641     -5.19504620382626      1.27054049737598
  O   3.51883726497862     -3.27496497903547      0.09187572639904
  H   0.20282365995526      0.13312900678603      0.36588008314096
  H   0.38327722313776     -0.81603388265252     -1.12245048381357
  H   0.54542327557084      0.94222776537213     -1.16604938867144
  H   2.44594805506478     -0.99564636032901      0.26014207634250
  H   2.61231115745899      0.75859283212924      0.27607383375311
  H   2.81985161750914      0.64743885448231     -2.11328841624203
  H   2.89026795699907     -2.51533608347707     -1.70917707091408
  H   5.37862247441883     -4.19783647514986     -2.02136503403424
  H   3.84218476892901     -4.33333673012396     -2.89915697227750
  H   2.93571153100414     -6.16991775401319      1.18547507194239
  H   2.53275681069228     -4.64889481679121      1.82484613459641
