27
Coordinates from ORCA-job 23240optt
  C   1.08413077943604      0.18084267090405      0.01959609768196
  C   2.56798007528620     -0.19520984087451      0.02896417966318
  C   3.00723759867210     -0.75531440271035      1.34472571339751
  C   3.51160058572156     -0.10679124983562      2.46660474509460
  N   3.66722108095041     -1.10197290559047      3.41088235240809
  C   4.12971392768973     -0.83207992970731      4.72057307717351
  N   4.58659608867908      0.40630616244896      4.99380857145429
  C   4.41994604638610      1.34749425945196      4.10412828229719
  Cl  4.99452072327566      2.95061749963700      4.63140684450872
  C   3.86141204050124      1.24186775179554      2.82880731691233
  C   3.73272698579291      2.34310487316085      1.82684955717904
  C   3.24861576359667     -2.26772057244269      2.85696422108934
  C   3.25194887512480     -3.56176924682230      3.58089156270372
  O   4.55662384962433     -4.12630583562129      3.74951492077528
  N   2.84789398901882     -2.08996253153132      1.60889982932823
  H   0.76413710947576      0.54828195871286     -0.95912402710094
  H   0.88407780930550      0.95632885530185      0.76170565514685
  H   0.47960119618550     -0.68950840207382      0.27963916162533
  H   3.16837606874232      0.67549658346483     -0.23802934862268
  H   2.74843666416430     -0.95627277882384     -0.73467924382301
  H   4.48755084176012     -1.68256076306123      5.28101718651055
  H   3.85259525486082      3.31510563120570      2.30076336846184
  H   2.75194388565974      2.32591022935623      1.34022067717728
  H   4.48219217952539      2.27270936020486      1.02608838080334
  H   2.61013436446246     -4.24823619241206      3.02318461685626
  H   2.85276745398072     -3.44149119145579      4.59081274938822
  H   5.05101876212168     -3.92586999268208      2.94878355190994
