28
Coordinates from ORCA-job 23258optt
  C   1.01356223156294     -0.15183403325316     -0.40917460258279
  C   2.51928578746093     -0.14515340906758     -0.17603098112172
  C   3.09123676558536     -1.55550487887270     -0.00268802792404
  C   4.58504036048523     -1.55858991888332      0.15174412509674
  C   5.21979651360828     -1.43319080414107      1.38428433802860
  N   4.47475149768289     -1.40239937872548      2.57679374781471
  C   6.62733028772148     -1.40588022556168      1.47655944284835
  N   7.30703803148864     -1.40604856240265      2.72122960523108
  C   7.17419038132610     -0.56633444730407      3.76203418108827
  O   6.35764787745543      0.33160593315100      3.88444804503011
  C   7.39320303858156     -1.52587493787826      0.29346045729341
  Cl  9.13788626104142     -1.53385211644177      0.39728823863235
  C   6.79764187158634     -1.64503459285641     -0.92944526736204
  C   5.37438890554087     -1.65592415383616     -1.02678573143473
  N   4.90085489824630     -1.75549514078481     -2.27372582629342
  N   5.81319002561379     -1.84217242339894     -3.22339420892618
  S   7.40901623355538     -1.78501098051402     -2.53480191028251
  H   0.61624656862938      0.85780809761511     -0.52994713176452
  H   0.48960321203454     -0.62023884132160      0.42817223462606
  H   0.76935712064862     -0.71912839639501     -1.30976311403727
  H   2.76464593219447      0.45809451645878      0.70367235965700
  H   3.02811063772242      0.31801576787409     -1.02444457846448
  H   2.84543413127506     -2.13624763558793     -0.89504207542273
  H   2.59656094391797     -2.05514280001500      0.83794395752143
  H   3.49571132801289     -1.23412463500215      2.40420318688817
  H   4.83258678508133     -0.71395863743327      3.23087471608207
  H   8.09720041808114     -2.03197224575525      2.78508805218766
  H   7.90548195385918     -0.79141111966669      4.55644676759041
