28
Coordinates from ORCA-job 23253optt
  C   2.33945159616088      0.42802494926340     -1.09911243243623
  C   3.16950966693687      0.05034204138062      0.13113421403479
  C   2.77482671649700      0.86820768648045      1.44040834782910
  C   1.31895456446971      1.50542964885563      1.59826976574993
  N   0.56714462643043      0.97136784816866      2.77210034197560
  C   0.60238471515190     -0.52372572339386      2.97546545216130
  C   1.72975624233010     -0.93136635125716      2.06359339081514
  O   2.80653402114195     -0.05880426371524      2.48418101888233
  C   2.43091940352740     -2.06635139617385      1.38577483906378
  N   2.38958739918970     -3.32900157527076      1.72541973656886
  N   3.13085526966921     -4.13096575833807      0.87650297288087
  C   4.09013886057351     -3.73266196606729     -0.06881576077958
  O   4.79500867757853     -4.60928214980056     -0.58220092198312
  C   4.08989871029930     -2.34040127571990     -0.32962132882761
  Cl  5.18769341458281     -1.74695504579677     -1.54001305664272
  C   3.19892542801166     -1.47547463569547      0.35557486344498
  H   1.31440490175989      0.05949257371972     -1.01529870620340
  H   2.30553324889290      1.51359077436122     -1.24479883026773
  H   2.77996746282506     -0.02625622686537     -1.98689294027777
  H   4.20049853420419      0.33812754974839     -0.09019954691850
  H   3.53252179376255      1.63485956685010      1.62598383807221
  H   0.71911801970318      1.38301730675429      0.69678853380603
  H   1.40518759903064      2.57946722081672      1.76715417111557
  H   1.00336162016284      1.37535055631262      3.58905307522670
  H   -0.34608208366954     -0.97041169598712      2.67252418284073
  H   0.77545495642310     -0.72822741358848      4.03217543209039
  H   1.29177327975000     -0.51942558029682      1.15375463815743
  H   3.24167135460419     -5.08096666474509      1.18909470962090
