24
Coordinates from ORCA-job 23252optt
  Cl  1.26127000994930      0.21653008659131     -0.48307826135700
  C   2.96554697827279      0.00690605202628     -0.01240313450023
  N   3.54539621842774      1.14682911051029      0.31104316408558
  N   4.75772584948020      1.04272168042063      0.94334256692722
  N   5.40311682096833     -0.04570037131830      0.96485048443668
  C   4.92105538176420     -1.19330251899636      0.38237400255063
  C   3.52077966806083     -1.25055890627167      0.03565723870623
  C   2.67591304582606     -2.48557622740639     -0.01291169831676
  C   2.24986249236148     -3.19386309242067      1.29375674957702
  N   2.27040902836013     -4.52239738773206      0.60712154411059
  C   3.11380903209576     -3.90619936764824     -0.46292819856726
  C   4.57624903990849     -4.26966515085588     -0.25659053056409
  N   5.48669650389199     -3.26212483357102     -0.80004096122357
  C   5.85515878251463     -2.26948468993138      0.18673216983823
  N   6.96061805357749     -2.39723406752718      0.84006701212666
  H   1.76613687070472     -2.25643789557325     -0.56554686383390
  H   1.29615537330048     -2.90169456211714      1.73343448704141
  H   3.02960772253206     -3.15332993789279      2.05562250858754
  H   1.34385810259478     -4.69850105440617      0.23175634801347
  H   2.81143153658086     -4.16999419611688     -1.48073563285301
  H   4.76211599284873     -5.24721845587334     -0.71237988280702
  H   4.78341164434114     -4.37406869629759      0.80953784151212
  H   5.03282412947504     -2.79631274817320     -1.58087313300261
  H   7.45485172216267     -3.19432276941898      0.44119217951205
