21
Coordinates from ORCA-job 2326optt
  Br  1.11249112920661      0.54533908068535      0.01965286603920
  C   2.95934401434589      0.20280997447637      0.02010803390595
  C   3.52113335232844     -1.03975283617871      0.02047803290588
  C   2.90200943739761     -2.34565819804253      0.02072802637127
  C   1.58472603945227     -2.78856794335790      0.02071046279464
  C   1.61278690840801     -4.21022238899906      0.02105520013414
  C   2.92980519187683     -4.66745432561607      0.02134856591268
  C   3.75398696637529     -3.51968792929376      0.02115974692180
  C   5.13112556900585     -3.39353851075176      0.02130023712793
  N   5.66040772035348     -2.13600237488789      0.02102141710610
  C   4.96006873240684     -0.97918212007794      0.02064039182970
  N   5.69181169899942      0.13683709003715      0.02048012793901
  C   5.08492928536346      1.32947394608278      0.02018852227241
  O   5.59754693646968      2.41838548377184      0.02002938942184
  O   3.66271579225727      1.34899500341623      0.01998267596846
  C   0.46281396829819     -5.04545693097475      0.02110181459783
  N   -0.46617082573347     -5.72770898380543      0.02113985239257
  H   0.68624249928586     -2.19766527689180      0.02047583899160
  H   3.25031739106511     -5.69717054831754      0.02163997680479
  H   5.83075846490044     -4.21437468265074      0.02162283468051
  H   6.66114972793688     -2.00239752862381      0.02113598588171
