25
Coordinates from ORCA-job 23266optt
  C   0.91470961636880     -0.30233110172531     -0.43403600405916
  C   2.38525101534301      0.05848898064371     -0.28495738036291
  O   2.53801433111218      1.44485731184938     -0.08336861512680
  C   3.05155855561319     -0.68434549830864      0.90250674564104
  O   2.38320863395272     -0.16915015157454      2.06007285542718
  C   2.74214876330150     -2.13785281185226      0.80643536215911
  N   2.51521361222748     -3.25877458566028      0.70821782613991
  C   4.54013797053309     -0.44301123093236      0.94802708856697
  C   5.44556800641014     -1.06545645408967      1.82087582966510
  Cl  4.84655996789675     -1.59106138073359      3.37260626819727
  C   6.82464242559873     -1.27737627173769      1.58621620783022
  N   7.76268977626708     -1.74460123190763      2.34682578151983
  N   7.26241062943256     -0.88138707055057      0.27959559622012
  S   6.18386305257672     -0.87799552162997     -0.94432300119238
  O   6.74703257616641     -0.15481601423128     -2.03459907487852
  O   5.61642995213927     -2.16593678452978     -1.18599765371797
  O   5.09853596051889      0.04548320034303     -0.25873267659246
  H   0.48485419040756      0.32909545100632     -1.21129482306893
  H   0.38539671103093     -0.11899398950750      0.50175455133047
  H   0.78712288452977     -1.34832106043483     -0.71216500135542
  H   2.92940155141136     -0.19700599352955     -1.19325376844138
  H   2.42923020323924      1.59607564148068      0.86468329867396
  H   2.94864732742846     -0.33847338913516      2.82397594361366
  H   7.38770155595041     -1.95930348019751      3.26549593413090
  H   8.17367073054361     -1.25580656305499      0.04643870968018
