25
Coordinates from ORCA-job 23260optt
  C   2.58110047176129     -1.46694304614608      0.71912667325436
  C   2.41960793171050     -0.10957774263793      0.04540556048121
  C   2.99735746806105     -0.08994297886734     -1.34751229491416
  O   2.27463277774722     -0.81440196056041     -2.33299713838969
  C   2.32394471284779      0.61026217964523     -2.47128747937088
  C   2.99856381275630      1.24195874673009     -3.61491062470822
  C   3.69109607773204      0.58774535604107     -4.58140681343816
  N   3.83963821270905     -0.76527198317866     -4.72525465814455
  O   4.30665743093339      1.23957934260912     -5.57726555090528
  C   4.18119132620079      2.58865268120225     -5.72790872389851
  Cl  3.82760780464330      2.91847773806256     -7.88717766641024
  C   3.46741988535164      3.31494413931867     -4.82864218315555
  C   2.86342569317340      2.70085878410928     -3.68115067515792
  O   2.26287683463073      3.30679173832949     -2.78069576967606
  C   4.43768500838266     -0.29328381728025     -1.41254690746288
  N   5.56791328579770     -0.48689695641130     -1.41375835784656
  H   2.12374422008164     -1.46523254768627      1.70870046241458
  H   3.63566504551084     -1.72316431565068      0.83320737097758
  H   2.10342567627883     -2.24546362340352      0.12289549273614
  H   2.90363635804209      0.67593005307319      0.62922538191791
  H   1.36445529807300      0.15273509156975     -0.04488789210107
  H   1.41015319551163      1.11596553921878     -2.17563947979115
  H   3.62276396621093     -1.32878450844344     -3.91977355738945
  H   4.64382929716228     -1.03891768524358     -5.26656420930540
  H   3.35760820868975      4.37997977559995     -4.97218095971596
