28
Coordinates from ORCA-job 23278optt
  C   3.28252286245222     -1.97625920267301      0.23392014779336
  C   2.63661005322893     -0.83167631754226      0.96919971212081
  N   1.39389772249212     -0.77635739619910      1.28805964760210
  N   3.43104396452244      0.23411992838006      1.28090256208831
  C   4.83108564905658      0.34683876602804      1.21425178333441
  N   5.55816600243045     -0.74188160950704      1.52015392407418
  C   6.85913876758911     -0.59599707452697      1.49022693219385
  Cl  7.79300206064033     -2.05187401184806      1.85083036864183
  C   7.55428087594924      0.56429237409566      1.22349067506352
  C   6.80906000231214      1.73009374420787      0.92614380244082
  C   5.37726075863776      1.60595455609583      0.89690342685052
  C   4.62295007445078      2.75600775399730      0.56389471925106
  C   5.31079204047295      3.95704272496393      0.31084991262389
  C   4.56744441634261      5.19649213062466     -0.07368126258612
  O   3.91393794339459      5.08082714187007     -1.34153466844960
  C   6.68962282598802      3.95914363729096      0.37887904084134
  N   7.44986654334749      2.88436326169506      0.67129100460307
  H   2.50787934375402     -2.58430295734052     -0.23119065735154
  H   3.87312810788562     -2.58055370034750      0.91972307253587
  H   3.97139419440782     -1.60766528312082     -0.52589814616620
  H   0.91702597356744     -1.60561743653202      0.95026604136193
  H   2.92871684532090      1.01689732276249      1.67696651798011
  H   8.63235660534217      0.60471146501881      1.23971274957343
  H   3.54673357661022      2.71447984919943      0.45421504509606
  H   5.25673468298746      6.04806008457033     -0.09032762700833
  H   3.77284601232273      5.41539410034439      0.64467449869722
  H   4.43679124463988      4.46296996336679     -1.86222105196432
  H   7.22871084985380      4.88349618512557      0.18429782875838
