26
Coordinates from ORCA-job 23274optt
  C   0.92610463669006      1.04894829508421     -1.30510867076916
  C   2.10721878958058      1.41534631508867     -0.45032356733974
  N   2.57835910123135      0.48316653505109      0.57306986352316
  C   3.40452901466232      0.74316823253456     -0.62850456805545
  C   4.68875166243732      1.47788327087057     -0.44445037885150
  N   4.61226317627208      2.78958085800563     -0.20518303808016
  C   5.73759410115867      3.51525160190076     -0.02906523213800
  C   7.04472961050322      2.90161100300061     -0.10136052837916
  C   7.10313708470060      1.53222501538092     -0.35496981369932
  C   5.91078750159876      0.83035815000543     -0.52341695773999
  Cl  5.99731581336279     -0.89652776194514     -0.82096743429732
  N   8.18275896531982      3.62285620366142      0.07613205274738
  C   8.01107651922741      4.92400948357805      0.30296149567552
  N   9.19199873478957      5.68439933976729      0.43035756351315
  C   6.76230035775909      5.52082758763441      0.37013523307835
  N   5.61476108122344      4.82843979995599      0.21016240405270
  H   -0.01051255146829      1.17440942494309     -0.75584508225534
  H   0.99252406378943      0.00747990408963     -1.63079935969311
  H   0.88102847759013      1.67954771602459     -2.19510824565027
  H   2.16894821166609      2.44887794207790     -0.13127262726263
  H   2.10992271087857     -0.41204371558852      0.45945177026605
  H   3.43531017379363     -0.06308228878053     -1.35289751722710
  H   8.06341735561746      1.03875628760939     -0.41553918541901
  H   9.96060863624275      5.08134705021706      0.69105758483658
  H   9.09671601130039      6.45436219822057      1.07642412732505
  H   6.67835076007260      6.58880155161230      0.54906011183935
