28
Coordinates from ORCA-job 23279optt
  C   1.29094398772004      0.24011360306552     -0.80187263269928
  C   2.52657260464976     -0.08255075539480      0.04877325363156
  N   2.30041399559707      0.13079340349961      1.48569144435644
  C   2.98475980797438     -1.50004295150834     -0.20550297835649
  C   4.15562332616611     -1.74095807220957     -0.89931630984309
  C   4.60480619860110     -3.03221289967149     -1.20095436376399
  C   5.85521673248170     -3.25450088692762     -1.81872603792759
  Cl  6.70462619719645     -1.96962118792246     -2.64923072317340
  N   6.19456082699374     -4.51520076953746     -2.32252686218145
  C   5.44090593229208     -5.59849204478958     -1.92909744902318
  C   4.30313840144761     -5.46423064896412     -1.23222923748746
  Cl  3.46267231122228     -6.97280476096086     -0.92948016025070
  C   3.78036750110789     -4.15960027577681     -0.80516169596183
  C   2.61436379923058     -3.92730513984719     -0.09722396971865
  N   1.68809190471329     -4.88407807036083      0.31644057255751
  C   2.18061527009456     -2.57620663959173      0.24731168627572
  O   1.11170920516426     -2.42943961306819      0.92433870148874
  H   0.96695569873402      1.27163388389559     -0.62918552024769
  H   0.48091490943505     -0.43775218924034     -0.52980634286148
  H   1.51111785696063      0.12208510146029     -1.86521828174593
  H   3.33725509078978      0.58586208061687     -0.25947873504651
  H   1.68164812541806     -0.62074640711262      1.78903480376469
  H   1.79387794494509      1.00075595685485      1.61665933076182
  H   4.76227885214250     -0.89817972582621     -1.20770531867973
  H   7.18026417563057     -4.67975994266004     -2.46251343227267
  H   5.80184696040505     -6.56726661802272     -2.24240602103447
  H   2.05155207170283     -5.76298177943711      0.63808578179869
  H   1.04190031118341     -4.43131265056253      0.95630049764045
