29
Coordinates from ORCA-job 23286optt
  C   3.74577504932652     -0.82050565564296     -0.77588598696624
  C   2.61926542375626     -0.18856017022596      0.04424950073272
  C   2.82626496090296      1.27710222402230      0.29386811087243
  C   2.12117563238710      2.25262663778400     -0.29416745657555
  C   2.29188981844610      3.70648893819220     -0.13840973652794
  O   1.41758757125388      4.48243419638593     -0.60077810139336
  C   3.54714136243095      4.12309843493879      0.40214791555290
  Cl  3.93745577223981      5.80500897385872      0.15104892182658
  C   4.51667425077048      3.31186950765817      0.97509259096156
  S   4.06892411838489      1.67640559143314      1.47808290742861
  C   5.88810562466299      3.66640839306395      1.31176469459077
  C   7.00520985460081      2.93816072869396      0.95486951774483
  N   7.18348703365707      1.80260103440886      0.13833749636435
  N   8.08470636951226      3.58306005317677      1.51568949277474
  C   9.46176395099598      3.17879279273676      1.40909597816298
  C   7.58341184474189      4.65977447736150      2.17309360608242
  N   6.28419574778832      4.74495087819895      2.08191794225096
  H   3.58196770288503     -1.89084471205826     -0.91984951143606
  H   4.70373726933091     -0.68448529953665     -0.27178121441780
  H   3.81128591038765     -0.34396908313745     -1.75511144614037
  H   2.53671231529547     -0.71619518820343      1.00236239801337
  H   1.66582854561456     -0.31671496635233     -0.47339873707510
  H   1.33455683810687      1.97847506192385     -0.99308690417839
  H   6.61945739150204      1.91834745838271     -0.70010690697665
  H   6.79475132387306      0.98357905300594      0.59959973317788
  H   9.66281394181735      2.28955962096143      2.00944646622413
  H   10.09212800843274      3.99569760563736      1.75757292119844
  H   9.70108526576261      2.95126530536321      0.37110625701406
  H   8.22764110113327      5.34156810796847      2.70922955071369
