23
Coordinates from ORCA-job 23293optt
  C   0.68480925415436     -0.61570766557267     -0.13879174386962
  C   2.11301168419876     -0.14715802413552     -0.11254872778359
  C   3.01473880541770     -0.44734211018195     -1.30047078652050
  C   2.55908881691893     -1.24057417595182     -2.41498459833711
  C   2.19277827364011     -1.93649955821556     -3.32068307609973
  N   2.45098403008457      0.86086510981123     -1.09454943494814
  C   3.24636147779328      1.97417010405853     -0.86482910808727
  O   4.12201144887139      2.33672666887064     -1.60636819332030
  C   2.79693467346225     -0.07511966358052      1.23198006428323
  N   2.07963666741843     -0.46907503651782      2.25327782983237
  C   2.69368617602684     -0.41024442202998      3.49388247668589
  C   4.00712227874689      0.05264267865278      3.55836536995786
  Cl  4.80765205513548      0.11954098974336      5.11410930313902
  C   4.67793911407965      0.44671957122168      2.43467173057718
  N   4.05341161616378      0.39349950922675      1.19659997637254
  H   0.31419818539936     -0.61351878436087     -1.16275835893173
  H   0.07343834790263      0.04192870404075      0.47811383877911
  H   0.61317532797452     -1.61776037155979      0.28075769516195
  H   4.06564523232695     -0.53256155459815     -1.04409340535215
  H   1.86902857851697     -2.54073988104410     -4.13233994144653
  H   2.91054019607197      2.56174785550727      0.00081647371356
  H   2.13791569992014     -0.72056554880005      4.36569187443473
  H   5.69989205977500      0.79802560541583      2.47515074175924
