28
Coordinates from ORCA-job 2329optt
  Br  1.57404946543851      0.54838976846690     -1.63081550102471
  C   3.23810322052449      0.26000009763137     -0.71207986660471
  C   3.64821504928850     -0.99550627779163     -0.40798231966395
  C   2.79790618777154     -2.27971351289000     -0.61717773401572
  C   3.02936613763971     -3.43091262727754     -1.71173037756526
  C   4.24603186567147     -4.34389399754994     -1.17936371679774
  C   4.74461895038617     -3.25707219967026     -0.20944355477295
  C   3.36300532935516     -3.05767722749736      0.52030348951722
  C   5.38193183268444     -2.31675818899440     -1.43626036574202
  O   6.52654599887729     -2.64135379816922     -1.75006158355159
  C   5.66160685752171     -2.43678931863828      0.72802415882453
  C   5.59272582437389     -2.67926098521843      2.17300642463778
  N   5.54201077557967     -2.87051611991767      3.30489045603666
  C   5.03046911173726     -1.08702856870132      0.18331245218790
  N   5.72068733704885      0.03111057736150      0.52588384568974
  C   5.22354325237005      1.21235265826713      0.19349931420817
  C   4.00734272963381      1.41664554503590     -0.43615865622346
  H   1.73987139503072     -2.01770356640107     -0.59189573208232
  H   3.20949752475186     -3.06786500364596     -2.72142919007996
  H   2.10426481025710     -4.01222223486204     -1.73043454355494
  H   4.95058569935524     -4.58922528863587     -1.96995348577522
  H   3.87413153346191     -5.26489750658122     -0.72523928809943
  H   3.39544313937290     -2.51524294768886      1.45973959562682
  H   2.88964048754954     -4.02617535975437      0.69512306440023
  H   4.74076803743932     -1.80477623333634     -2.16314728969131
  H   6.71370401205266     -2.42011098898289      0.44708787901248
  H   5.83244035560080      2.07496752768689      0.45488698246835
  H   3.64649307922530      2.40423577775505     -0.67758445736459
