33
Coordinates from ORCA-job 23298optt
  C   4.87439619626930     -1.59362580137347     -1.77836839625570
  C   4.26301731454264     -0.97623998233236     -0.52639436354905
  C   5.24815479087849     -0.81155549392829      0.62768297849504
  C   6.45140513231673      0.05107344947944      0.24917382291511
  N   4.51644515870982     -0.27231912022402      1.77402693165311
  C   5.24757097342655     -0.11516235584970      2.98129064684487
  C   5.87377550851874     -1.24688753534694      3.55472218549953
  C   6.69632644465941     -1.08405578645099      4.71456212649980
  C   6.65973348990149      0.10755415192871      5.35698043359013
  N   7.60506322411401      0.64873735946122      6.34268617364032
  C   8.03890630218661      1.87883488087803      5.54078170723275
  C   6.55276071193527      2.33189780780972      5.68644618445844
  C   6.70082092598156      1.63292582362595      7.05664403867781
  C   5.83683874216738      1.21786037689841      4.94618512012614
  C   5.32750612712894      1.11125014537682      3.62476090343739
  Cl  4.57329632851343      2.54153764276083      2.90948201177300
  H   4.11315118540005     -1.78443206838124     -2.53714010908630
  H   5.36003150947494     -2.54426937140481     -1.54439934603248
  H   5.62602088357141     -0.93846179421764     -2.22083215476448
  H   3.43162179518976     -1.58850943609019     -0.17028887266694
  H   3.84477661993152      0.00774336489864     -0.76998796374626
  H   5.61005538267904     -1.80391315150328      0.90968989578498
  H   6.11236935289204      1.01505619104320     -0.14332312161614
  H   7.07960464863211     -0.43105277372700     -0.50315638590806
  H   7.05459103874786      0.23885083184796      1.13882272206493
  H   4.09612836375013      0.61291069924237      1.51512389227980
  H   5.76677419853382     -2.21036287668925      3.07653908480204
  H   7.35533984517376     -1.87629721472986      5.05160225592485
  H   8.40667776408133      1.64702571703780      4.54095119310489
  H   8.76844864995691      2.45631005288113      6.11471798850943
  H   6.21621035884564      3.35972471237927      5.56484555776922
  H   5.80661306920244      1.18861204439198      7.49432299594459
  H   7.28056796268668      2.19223951030753      7.79384986259710
