28
Coordinates from ORCA-job 23301optt
  C   3.59111720185031      0.80300133078344     -0.58728102545208
  C   2.45302334427058     -0.04278373184229     -0.01064853306778
  C   2.88008966100424     -1.40419462959505      0.44052321461331
  C   2.32991709173686     -2.53243344700733     -0.03283561716762
  N   2.73303172682700     -3.76742718490973      0.44466403523501
  C   2.27168122776054     -5.01843555441226      0.11113893333489
  C   1.17615224997949     -5.19982384671772     -0.88207648234315
  C   2.95612644009791     -5.95128597264010      0.83723226297266
  C   2.79673703075210     -7.43546205304460      0.82947131236797
  C   3.94393630237270     -5.27223881082893      1.68475341511605
  O   4.75825932864126     -5.82868432672275      2.46177182013791
  C   3.76222252595406     -3.87701462317589      1.40280702001381
  C   4.42773419588764     -2.71017378556447      1.79100696040270
  Cl  5.24973350214317     -2.65184331681228      3.34582507522537
  N   3.84678687045535     -1.44645333215294      1.45536856382212
  H   3.21587226541925      1.75680522165111     -0.96302990819024
  H   4.08271795080548      0.27543215386253     -1.40619367354952
  H   4.34608221950796      1.02854706282446      0.16804691875970
  H   1.67347081684149     -0.16443278317520     -0.76518457323349
  H   2.00763726054825      0.49473265305027      0.83465900897397
  H   1.53294030664635     -2.51558740966998     -0.76166686076093
  H   0.24268622399262     -4.72563181564485     -0.56003473758620
  H   0.98180950232200     -6.26414204566453     -1.01232069104899
  H   1.43234689763966     -4.78309236182328     -1.86153391921781
  H   1.81937480292791     -7.75998068599338      1.20176788738596
  H   3.56094191410633     -7.85233015712759      1.48839916536578
  H   2.92974250540262     -7.87194135839610     -0.16571407098171
  H   4.54382863410675     -0.71812518925039      1.38508449887229
