24
Coordinates from ORCA-job 23318optt
  Cl  1.24484753739904     -0.26433117479717      0.80308812345331
  C   2.85804316709418     -0.00281485604188      0.21638172052824
  C   3.57967705090712      1.13555077147591      0.48930288914785
  Cl  2.69711461581182      2.48716717035974      1.19697380653582
  C   4.95572167109153      1.26799258401387      0.26639646974152
  C   5.76253837395229      0.14406181138136     -0.06184498220205
  C   7.28103237796077      0.23256880678678      0.02337643088484
  C   7.77724480959458      0.66366550802065      1.33478949312620
  C   8.18075804521853      0.98904427599597      2.41601104547265
  C   7.87928949803727      1.06077134022530     -1.10775116627139
  N   8.50327178080100      0.59806918837136     -2.10018887657991
  O   7.75327151605600      2.40873265794967     -1.00913500510116
  C   6.43670377151026      2.95623798276925     -0.92581693315683
  C   5.63507763890951      2.61423564252452      0.32741164999950
  C   5.31167408469951     -1.11109451797466     -0.50555893650439
  O   5.98395070140672     -2.08825099648896     -0.83939035666062
  S   3.51248151170623     -1.34721579338500     -0.66825310508627
  H   7.62893498877949     -0.79050828116537     -0.12993410223277
  H   8.52847975156615      1.28485547321299      3.37545752584007
  H   8.56747772196057     -0.41429775220961     -2.01860114719671
  H   5.87555661079417      2.66156189371938     -1.81882242474818
  H   6.60785936239571      4.03210332151414     -0.96211256998330
  H   4.88486150480586      3.39485189671755      0.43634489434063
  H   6.29813190754145      2.69204304702419      1.19387555665295
