23
Coordinates from ORCA-job 23329optt
  C   1.09012489809175      0.04538937447612      0.19656483028391
  C   2.56481460172770      0.16160629754402      0.05160617817290
  C   3.38385396911173      1.25761545655333      0.08762527566081
  O   3.01215669299574      2.54578496658053      0.30792062338634
  C   3.95312744831877      3.48050790371579     -0.25005181697400
  C   5.38279950319501      3.14407468166542      0.03775743606793
  C   6.44246156980977      4.09502566095435      0.12199232890686
  Cl  6.11801399192190      5.80877531659201      0.30234011422981
  C   7.73580681953312      3.61867604361479      0.19591967555059
  N   8.08614347293137      2.34005466763044      0.15935991134020
  N   7.07333984682104      1.38556074806756      0.07982445565592
  C   5.81998470489102      1.81963879558232      0.01188076231734
  C   4.73559826964074      0.84163952476817     -0.06691075940722
  C   4.71015412037742     -0.52074822165893     -0.19981063319530
  N   3.40212902647711     -0.92635836095983     -0.11664766331656
  H   0.67051894077047      1.04589925190682      0.29542744157445
  H   0.80385166438625     -0.52635545863608      1.08483698602706
  H   0.62377069778677     -0.43078143711406     -0.67123482871545
  H   3.69069272558959      4.45199679604377      0.16544573977211
  H   3.75704557346169      3.51505185611098     -1.33639373717708
  H   8.55724416858080      4.32522472070096      0.28840066722420
  H   5.52051322252519     -1.21670343977634     -0.32889335747398
  H   3.08485407105497     -1.87057514436217     -0.23295962991083
