31
Coordinates from ORCA-job 23335opt
  C   1.35560442832673     -0.86867223039944     -0.27108982810691
  C   2.75777851891104     -0.28666383333876     -0.06832195998302
  O   3.74499646080179     -1.23407060158253     -0.48002866607965
  C   2.94731921552750      0.89792676360258     -1.02140472035276
  C   4.36024714988196      1.50826073946820     -1.01214935459852
  C   4.33277515078826      2.93957538134538     -1.50255983374482
  N   4.11345897899755      3.88246370038982     -0.55267097933551
  N   4.44932268896362      3.28320345691932     -2.73552226864590
  C   2.95088764211590      0.11091528961057      1.39690841303189
  C   3.00508118967018      1.42706304187754      1.76255074846398
  C   3.29189684606766      1.84321638523148      3.09047348155806
  C   3.57899973790234      3.21091911386880      3.32823471808616
  O   3.66422896071934      4.08205484623678      2.42277033144776
  N   3.36189489940297      0.92410836990861      4.10695717624120
  C   3.25628752922187     -0.34080490267391      3.77239931643892
  C   3.09469467436733     -0.81084828453544      2.46535838660415
  Cl  3.03004273785549     -2.55474225386797      2.25414851073759
  H   1.24746470016396     -1.19944587017543     -1.30583334987831
  H   0.60092935815670     -0.11116395311946     -0.05389196647959
  H   1.18797110963279     -1.71861284808879      0.38991802743878
  H   3.74797973133290     -1.96695501867251      0.14518940275407
  H   2.20345512483843      1.66288617573146     -0.79515638394241
  H   2.72373634289784      0.53553915794275     -2.02733504230048
  H   5.01262777907596      0.92186390885804     -1.65776752722128
  H   4.77972815464845      1.46948716447928     -0.00767602187306
  H   4.05347820457595      3.72026044931594      0.45085934559415
  H   4.03822255077041      4.83408069001808     -0.86829832054994
  H   4.59654827135345      2.45531994563861     -3.30440962239278
  H   2.86619148139321      2.21254867433545      1.03802723185757
  H   3.75651255782027      3.48148754311247      4.38090899757062
  H   3.31363782381798     -1.07220100143700      4.57541175766004
