26
Coordinates from ORCA-job 23338optt
  C   1.36488784575422     -1.24933943324650      0.22476215258634
  C   2.52347816316120     -0.26138960908899      0.06652428720074
  C   2.95506315355889      0.31157606925378      1.37240456067774
  C   2.93039870321600      1.60546144933780      1.77477986419529
  N   3.34730553543266      2.06830221658487      2.96365910779040
  C   3.80783347782377      1.11465091856526      3.80683209444081
  C   3.85290956446375     -0.26735814751028      3.52750125381972
  O   4.24638776155725     -1.17656221704000      4.24006522778900
  O   3.37811521187368     -0.65166620212100      2.25485202334339
  N   2.51652848531314      2.65040923398396      0.85881477287548
  C   3.45643104594760      3.56314572338237      0.55609187871103
  N   3.28708178585399      4.64955169453674     -0.14127048924255
  C   2.01604689052276      4.84633783516731     -0.55750136075393
  Cl  1.76101274004570      6.30730082431311     -1.47526499400296
  C   0.97398748133804      4.02637311661234     -0.31998791286153
  C   1.17872475034034      2.81189928575620      0.44791540177154
  N   0.30408860400953      1.93353221128252      0.75494460791028
  H   1.08855649597496     -1.68158070846709     -0.73965635393461
  H   0.50127599497692     -0.73357296024699      0.64309469451068
  H   1.65250898957257     -2.05698318678571      0.89760379269404
  H   2.23355985731597      0.54754717074249     -0.60401113467722
  H   3.37592936838994     -0.77949569356773     -0.38890542436626
  H   4.15696929812847      1.42124646605864      4.78299674207632
  H   4.43640411493685      3.33982167628780      0.95808021933362
  H   -0.01961538718498      4.25456760702986     -0.67546292017654
  H   -0.59986993232328      2.21622465917921      0.38713790828917
