25
Coordinates from ORCA-job 23336optt
  C   1.03584223792703     -0.11923207598647      0.47365863251327
  C   2.51085314032830     -0.05926366547770      0.09031158022869
  C   2.94442977094052     -0.99455734464059     -1.01009198903608
  C   3.89534435013488     -0.33865529212501     -1.82654267253982
  O   4.06639419274248     -0.81955559879156     -3.16637498275476
  C   3.81198278703076     -2.11880168536500     -3.33146359726387
  O   4.25958952416115     -2.56406016996982     -4.52809312709317
  C   3.16892824198837     -2.89202428786363     -2.44430360376203
  Cl  2.93661006880390     -4.56675730887807     -2.84098535531906
  C   2.57946915434367     -2.34015946892701     -1.18904233217788
  N   1.82190469663981     -3.03301793279682     -0.37083114392091
  C   3.79453640970685      1.12612023154727     -1.65956059647717
  C   2.38756738478133      1.72053492083432     -1.79902609692408
  C   2.92366271064193      1.30224681470033     -0.46414569729483
  O   3.23063408595976      2.31504956956795      0.46049910484423
  H   0.78417196283943     -1.11477829001255      0.83420308018908
  H   0.41076090710694      0.09192484862358     -0.39720355295280
  H   0.80826818756735      0.61831121848304      1.25283555581546
  H   3.10958568571678     -0.22307136468425      0.99865674266745
  H   4.73994397650244     -1.82511778137258     -4.91912226479971
  H   1.68960070974630     -3.97145491205034     -0.73680067864150
  H   4.63387554435329      1.79205907486766     -1.81536691562391
  H   1.63850874881145      1.10787820443957     -2.28503595172354
  H   2.32303076340848      2.78989942827897     -1.95769791918070
  H   2.40950475781676      2.54448286759871      0.90752378122767
