25
Coordinates from ORCA-job 23331opt
  C   1.16520007435316     -0.04194640904945      0.04677439200212
  C   2.60081813932183      0.14906623087574     -0.35581035224796
  O   2.83853569153645      0.25922915888638     -1.74862184709390
  C   3.09091996685005      1.41691161372394     -0.90912661269708
  C   4.45186958964912      1.93036329447042     -0.74926180155618
  C   5.61716414415716      1.29212339562735     -0.30377992773663
  N   5.77628779116694     -0.02325434222920      0.12180381945396
  C   6.95871201215553     -0.33290153841697      0.48714152259278
  O   7.25026111938818     -1.59594545385755      0.90805433175331
  N   8.04033198207315      0.48255586392162      0.48922419875936
  C   7.98468714656260      1.81026022838125      0.04109255475461
  Cl  9.03210097640439      2.91378350589869      1.12991135303718
  C   6.69202799290891      2.23651718159380     -0.30987530547913
  C   6.17109886719403      3.48467967163986     -0.74590625914844
  C   4.82844363013833      3.27289953579311     -1.00692703685005
  O   3.91555104837413      4.21026296119936     -1.44922170507403
  H   0.83607963384813     -1.06105605038324     -0.17254819681031
  H   0.52626864983789      0.64936593276085     -0.50452303362028
  H   1.03597276142314      0.13518156620011      1.11651649858168
  H   3.33411768937703     -0.46317960557940      0.16074651933132
  H   2.34353492573298      2.19219609004612     -1.06159376416462
  H   6.42447778297824     -2.08298357763733      0.79666023721106
  H   8.93662025730826      0.07256398659204      0.69524439843626
  H   6.71912225226688      4.41088928827326     -0.84192771397995
  H   4.37879587499302      5.04941747126914     -1.50904626945503
