26
Coordinates from ORCA-job 23348optt
  C   1.11565941094998     -0.12168507328952      0.44228722502842
  C   2.53973181069228     -0.01799177287824      0.15460185561959
  C   3.72238210376793      0.09398196323267     -0.08736766681703
  C   5.09277870235451      0.18320961645489     -0.36075224619216
  C   5.78571073787226      1.34071383058687     -0.69448334688508
  Cl  4.91020418458562      2.84579334151209     -0.79503933918500
  C   7.14602087555552      1.32900784498836     -0.94807351620647
  C   7.89486534206924      0.13300308573328     -0.87877731428950
  N   9.24204267717041      0.02842893077446     -1.10622401423554
  C   10.03180960948701      0.95534357614420     -1.39640054859602
  C   10.09300546995943      2.45207869137131     -1.64229684732109
  C   11.58367100380696      2.18148939215189     -1.86132237244959
  O   11.41109055794095      0.77645473246924     -1.61273760939358
  C   7.21466766170438     -1.11234451037280     -0.54573531512178
  N   7.73099452736508     -2.29092860734248     -0.45160425697142
  N   5.85820185409983     -0.99139017874997     -0.30220892690038
  H   0.64022648840731      0.85592809395359      0.33889148501082
  H   0.92797670621700     -0.47211431536748      1.46126436274204
  H   0.60932659690134     -0.80728517470859     -0.24294472229290
  H   7.62344057545007      2.26452155008946     -1.20092903902420
  H   9.84099107167922      3.07283496646867     -0.78219698465103
  H   9.53939962450504      2.79979323306322     -2.51497331029158
  H   12.25907356674479      2.63176312840115     -1.13193498754405
  H   11.95400782580028      2.36170838039766     -2.87195020185733
  H   8.72339711106492     -2.20803753263000     -0.65469679201857
  H   5.39332390384850     -1.85427719245392     -0.07339557015656
