24
Coordinates from ORCA-job 23341optt
  C   0.90025201061863      0.09932169495181      0.40856597381829
  C   2.39126495158782     -0.04803659876968      0.65872449478152
  N   2.85823895990966     -1.30637998857854      0.11496126687658
  C   4.20763813664932     -1.63871242851061      0.27009873736818
  N   5.05740391548566     -0.59556705902247      0.40611322625631
  C   6.36581016511629     -0.90586084089908      0.43944036372371
  O   7.19211923373363      0.18593242765241      0.55031982547223
  C   6.90826910444968     -2.15441189418032      0.35381854496273
  C   6.02738155446890     -3.27163684043248      0.19009134618028
  O   6.42852843988872     -4.47254218486816      0.87679147676913
  C   6.57729643824979     -5.57406274657103      0.14269187638878
  N   6.91819935448919     -6.70469103076381      0.59854397006358
  C   4.63748206720919     -2.94453157422788      0.22882429917631
  Cl  3.46736231798670     -4.23665076894197     -0.02738129072609
  H   0.53385257870084      1.05058756478869      0.79761262837021
  H   0.34039562518570     -0.70088650603424      0.89941235656167
  H   0.68697382885450      0.05261515521762     -0.66043821403750
  H   2.60504074462883      0.03661418272706      1.73353082654802
  H   2.94142440345071      0.75676099268901      0.17330332481644
  H   2.24698371631453     -2.08649052733379      0.30761052113661
  H   6.58566675245931      0.93555173502260      0.57456176333843
  H   7.98113956728022     -2.28706323110867      0.38387125602537
  H   6.38742920201671     -5.42867442355893     -0.92061133014298
  H   7.04184693126539     -6.63318510924751      1.60954275627220
