31
Coordinates from ORCA-job 23342optt
  C   0.52994461009148      1.78987967023306     -0.67398856353430
  C   2.00568945354676      2.12833990466490     -0.84418330054163
  N   2.51921527280195      2.97333812569332      0.24411086038008
  C   2.85747860266337      0.85731717015839     -0.93067197521504
  O   2.30078245023649     -0.01960336460540     -1.88016441920222
  C   4.36498666102691      1.16609310028462     -1.17036540771866
  C   5.11423635458158     -0.09521680138450     -1.22655873052472
  C   5.74666367126489     -1.11294541345792     -1.29786228622900
  C   4.71242850828063      2.11258444298564     -2.31491968266824
  C   5.24071526771479      3.39435822126415     -1.99452319281631
  O   5.02534210170257      3.96166619391393     -0.75807729238344
  C   6.02261575298625      4.09030732671987     -2.87683446522862
  N   6.38910766445757      3.62704545924002     -4.11493986195818
  C   5.85488421283896      2.46593683002164     -4.48139970389079
  N   6.09479201199167      2.08741602157459     -5.81823783047128
  C   5.07373369974732      1.68755941212509     -3.64232695464223
  Cl  4.20939843624083      0.32541507666506     -4.39955274635346
  H   -0.06704557964589      2.70424659714610     -0.62633910183121
  H   0.37372651513487      1.23022691554790      0.25344145293105
  H   0.17649727041624      1.17984989054856     -1.50323307703556
  H   2.15704519522753      2.67697557884628     -1.77799005282759
  H   2.48537776160166      2.46457367965562      1.12321613882888
  H   1.93388295244483      3.79380104521626      0.35741774339479
  H   2.78676664754848      0.34165196920744      0.03913951185799
  H   2.78576550184071      0.07057880841230     -2.71414969615339
  H   4.70077044732447      1.66490076523076     -0.25584033039897
  H   6.30951094255861     -2.00974082889075     -1.38353337648906
  H   4.18463769598502      3.63565185208277     -0.38532309377659
  H   6.37784044181035      5.07404340453538     -2.59261389644633
  H   6.91011823377452      2.57992316108907     -6.15543896562785
  H   6.17209124180443      1.08882578527576     -5.94725770342807
