21
Coordinates from ORCA-job 2335optt
  Br  0.97777769405323      0.33551879526105     -0.03953113133142
  C   2.82866832856428      0.08438586635466     -0.03860245819319
  C   3.47105388741304     -1.12929023271512     -0.04027310729686
  C   2.90590889436658     -2.43198626621827     -0.04313954804507
  C   1.60855427549016     -2.97339179865125     -0.04502801858239
  C   1.73205841566842     -4.37340650659810     -0.04774042408579
  C   3.08329248999812     -4.73961369433891     -0.04802500813356
  C   3.82796950393493     -3.55496009021115     -0.04503110561087
  N   5.18029016666005     -3.43524123061711     -0.04353342336789
  C   5.67307839273417     -2.24375189271560     -0.04042098316071
  Br  7.59489116522997     -2.10458982000524     -0.03744997535847
  C   4.92982156050760     -1.03854757506314     -0.03889605830499
  N   5.53875452844026      0.16164023455853     -0.03646017318592
  C   4.84391445399806      1.24193903378037     -0.03524429949744
  O   3.47232432675547      1.28514269848520     -0.03610981545093
  C   5.52043712655620      2.53357979683992     -0.03284064283847
  O   4.97831826477478      3.61609424267067     -0.03177270721724
  H   0.67690433329352     -2.43431741574234     -0.04433557865010
  H   0.89666289251977     -5.06025269701127     -0.04949773527869
  H   3.49660588506218     -5.73621664581035     -0.04997864390646
  H   6.61671341397915      2.41526519774746     -0.03208916250352
