28
Coordinates from ORCA-job 23350optt
  C   1.37385812725864     -0.20349332987899     -0.86691262621024
  C   2.75229647003933     -0.05747273661300     -0.23104694216445
  C   2.64888549713106      0.25986444129195      1.24644465150942
  O   3.39493296077906      1.09281823383146     -0.86545375110676
  C   3.89872493227439      0.59307260145991     -2.05202650363901
  C   4.26707808313487     -0.75993439237527     -1.87625934689777
  C   3.80655236129760     -1.57514241587216     -2.93869231865587
  C   3.57906388341545     -1.13076182813111     -4.22474457863954
  S   2.63978524700773     -2.38206148448934     -5.03378389172726
  C   2.40498089176396     -3.29207271625981     -3.54719369185340
  C   3.05862782870772     -2.69612944620215     -2.51200651012606
  C   3.04055885356503     -2.67285685461062     -0.98904157584903
  C   3.68472901138577     -1.27460726774262     -0.59825474318942
  O   4.67683210380819     -1.47397603629446      0.41830616067712
  C   3.73949868448889      0.25776885295474     -4.48083797292548
  C   3.72197422611554      1.09946506264717     -3.31520815074567
  Cl  3.20669378574295      2.76480318054300     -3.51454159170966
  H   0.84877796742543      0.74999157209759     -0.79528349059521
  H   0.78484548505292     -0.97024647815769     -0.36036199854787
  H   1.46425220178870     -0.47147015464147     -1.92209875936901
  H   2.00836518932573      1.13119724294853      1.39472711587537
  H   3.63494790075120      0.47092608959615      1.65618786817003
  H   2.20547705544355     -0.58295307216821      1.78453903184008
  H   1.79939782624500     -4.18496874629468     -3.57128333719463
  H   3.69248212605096     -3.43809958645286     -0.56151492421920
  H   2.03670884384842     -2.82687080943403     -0.58716709103134
  H   4.23111367955145     -1.79653296396322      1.21011274857439
  H   3.60955877660043      0.70374304221119     -5.45560378024951
