36
Coordinates from ORCA-job 23355opt
  C   2.60446986797299      0.14169779133634      1.83844439379057
  C   2.54802965591580     -0.27665112852879      0.37383784843703
  C   3.26449965332721     -1.59113897954021      0.13404860225955
  O   2.62231567084534     -2.61456487084188      0.89515067976727
  C   2.73876414288330     -3.79322832877988      0.18714404731239
  C   3.32602125898148     -3.58782223546105     -1.07311688278789
  C   3.36938644613146     -4.68845352498795     -2.01148164347734
  C   4.04922960665212     -4.51300623376434     -3.33364927060243
  C   2.92696706647557     -5.90228337527266     -1.51271124324216
  Cl  3.03228874742082     -7.34961036628567     -2.53076095062133
  C   2.41309694380297     -6.11222788452682     -0.23452060598116
  C   2.27332998544491     -4.99078704044033      0.65918545335590
  C   1.71771351070570     -5.17350387940409      2.03536916170114
  C   3.34410882789203     -2.09667817428476     -1.32967047234899
  C   4.59164984750235     -1.52171352523182     -2.00253466055162
  C   2.12115394518444     -1.67390560147218     -2.16947434272157
  O   0.89152713518053     -2.11895823356574     -1.63810592917042
  H   2.09173558799832      1.09117070642765      2.00313645994123
  H   3.63907626728002      0.25295616768893      2.17242136625150
  H   2.13341442594802     -0.61751730422204      2.46284880396905
  H   3.01589563906195      0.49060540010100     -0.25220836617670
  H   1.51105691357871     -0.38235343708786      0.04952765395659
  H   4.29816072349541     -1.50656609194779      0.50357455081347
  H   3.60775394205752     -3.69819761035139     -3.91661732014189
  H   3.99652212566770     -5.41635641970240     -3.93715814606985
  H   5.11050162453713     -4.25428050830342     -3.19395509776832
  H   2.04006338943192     -7.08727505087989      0.04603092240598
  H   2.34933225386475     -5.83947470610065      2.63891202297885
  H   0.72136450646447     -5.62983672926223      2.00694902095956
  H   1.63932456015845     -4.21859250997303      2.55470225913540
  H   5.48799791935472     -1.87787712737295     -1.49299118465142
  H   4.58014013050559     -0.42578854903234     -1.97335397937669
  H   4.65487111048751     -1.82578429968125     -3.04778323486383
  H   2.25785232241665     -2.06121240642634     -3.18746886032372
  H   2.05475146889130     -0.58219158918247     -2.23827918782328
  H   1.03563277648072     -3.02259234363955     -1.31944186833489
