28
Coordinates from ORCA-job 23358optt
  C   1.25388472663033     -0.27989928155647      1.21677430535463
  C   2.60831150574657     -0.21449611398991      0.56340039136430
  N   3.28208316419649      0.90120848769347      0.77018726410156
  N   4.55003872557918      0.92535341438139      0.22318087258006
  C   5.09106659794324      0.02827787238796     -0.69087157210872
  N   6.20447642365462      0.28103820894700     -1.36526622192614
  C   7.09709300711866      1.26238565625397     -1.06609028440260
  C   7.40190732656083      1.77787814613617      0.17701726499371
  C   8.46170039874339      2.84935002207761      0.50040576706466
  C   8.66207556538355      3.40769182192874     -0.87974803268684
  O   9.75999212479544      3.59675938017048     -1.78006974725015
  C   9.09308601215049      2.32482804423173     -1.73793666990414
  C   7.87935207950953      1.69116723561031     -2.34938266306055
  C   4.32328162670404     -1.12521861318472     -0.86832504915267
  Cl  4.86850296509681     -2.36114301483162     -1.95122104282444
  C   3.08162104132672     -1.27196590198030     -0.21131840474742
  H   1.05540837578174      0.65759805408289      1.73349097143452
  H   1.20915045019931     -1.09623430608516      1.94143847106957
  H   0.46896200556263     -0.45091816013502      0.47680349694792
  H   4.99083459870830      1.82845524353404      0.27229771558007
  H   6.87007995775050      1.37049449371344      1.02773957382081
  H   9.38371060759051      2.41633242932057      0.90232183878005
  H   8.08335158042407      3.57086372414777      1.23104871292681
  H   7.78970688378292      3.94905352006493     -1.23458496934256
  H   9.73357501753753      1.59387048516005     -1.25152027447724
  H   8.05842352264698      0.79725484087097     -2.94617704413727
  H   7.27111183816849      2.38445858454918     -2.93284249949299
  H   2.49121187070705     -2.16744427349949     -0.34475217050493
