30
Coordinates from ORCA-job 23359optt
  C   1.11198800862184      0.44965490531867     -0.65009585312356
  C   2.51384284507875      0.28276912646704     -0.12932698682865
  C   3.14119683317440      1.30539326722828      0.57710148636377
  Cl  2.75760037638892      3.02370379347720      0.25290639000385
  N   4.41683197755272      1.09055006769815      1.10648120230765
  S   5.49030934506051      0.27768339894355      0.08981697709815
  O   5.68047919991089      1.07089654258700     -1.10032767985014
  O   6.66853491714107      0.00196491578084      0.88466055913263
  C   4.58907745147750     -1.15044012355760     -0.18934432251021
  C   5.25411143252695     -2.45841962716633      0.12706864317285
  C   4.88537130453474     -3.70933296392286     -0.68652701081570
  O   6.25513290200601     -4.11955951330378     -0.76385972764543
  C   6.70019181554719     -2.79589411964976     -0.35576502322671
  C   7.17937602639314     -2.02958215165062     -1.57358709886469
  C   7.77092252955069     -2.91021637813910      0.70480656149720
  C   3.21014811800045     -0.92393827950849     -0.29619243124593
  Cl  2.19775212797902     -2.34390054674798     -0.61621942561012
  H   0.81204383616416      1.49390125789769     -0.60684411721271
  H   0.40268206732370     -0.13439355307725     -0.05792206552919
  H   1.03021241529216      0.10590183423653     -1.68241190939508
  H   4.84942334572446      1.87983076592510      1.56796649099416
  H   5.19686305881358     -2.69134378201692      1.19759052111179
  H   4.48459504521650     -3.47470115701242     -1.67484486405664
  H   4.25396240001014     -4.45411715960097     -0.20179655617811
  H   6.37673956857780     -1.91493147048352     -2.30278934910403
  H   7.99933439924230     -2.58725103234214     -2.03200387325740
  H   7.53329788753379     -1.03643802321620     -1.29922344704692
  H   7.40349188363216     -3.49851883877883      1.54664839391949
  H   8.05545416022902     -1.91923641081486      1.05458979324117
  H   8.64503272129532     -3.41503474457039      0.28544472265853
