21
Coordinates from ORCA-job 23361optt
  Cl  0.63244276958308      0.08478361420037      1.07780900053182
  C   2.45577298059700      0.12786563068467     -0.23641117991958
  C   3.22677399762988      1.24168115352855     -0.25681548395062
  O   2.82510204505893      2.56013675493251     -0.45391863068692
  C   3.92288628684199      3.31736453034386     -0.02390034544188
  O   5.09141698619410      2.51902068555829     -0.19726146592060
  C   4.62334306108830      1.23028042398464     -0.11078210105602
  C   5.34577982246725      0.09132166094939      0.07047965330808
  C   4.60395830082385     -1.11059342746182      0.06780390945733
  N   5.03668621036769     -2.37141002376641      0.21866253760790
  C   3.89100190039358     -3.06750826207046      0.21347279217912
  C   2.78176582994877     -2.32155824875388      0.06251551527239
  O   1.69039782880279     -3.08820907543464     -0.27342840785876
  C   2.15124419957311     -4.35474711265711      0.19932560076472
  O   3.57780223972302     -4.40547792989673      0.08653292548624
  N   3.18886564089123     -1.02810584890611     -0.07830483920267
  H   3.81972250740074      3.55642140841442      1.04339476240809
  H   4.00977729282788      4.21732275396716     -0.62948965992887
  H   6.41511877416403      0.06934746403480      0.20866852394345
  H   1.71063296262872     -5.14415035764534     -0.40258331569306
  H   1.89050836299396     -4.43578579400615      1.26223020869984
