32
Coordinates from ORCA-job 23364optt
  C   1.04587384547957      0.05273131016905     -0.13866548731538
  C   2.55667406561627      0.11020453318543     -0.10633384450087
  C   3.12895661212353      0.08902050698114      1.29476572961177
  N   2.69590697633273      1.25510442040569      2.07889005713814
  C   3.36035795680016     -0.63779410413820     -1.14192972341605
  C   3.32757179246603      0.85320558841499     -1.19483675454824
  C   2.56318111450015      1.50576516323328     -2.32886724101169
  N   4.52415635536364      1.59787230267173     -0.89429859583852
  C   4.32483630861655      2.85396171669027     -0.28089121474422
  C   5.38313933443771      3.56109051839808      0.15499674443297
  N   5.26796961415671      4.86332754126767      0.67964577793329
  C   6.73090926068834      2.98127475792962      0.11544447548024
  N   7.84908208136564      3.63918476386350      0.41999502920137
  C   6.65643997232037      1.58463382201803     -0.10185096548884
  Cl  8.09341905653248      0.64437197553834      0.23822593120236
  N   5.62712411893357      0.84900998327889     -0.46760023891639
  H   0.69619193246187     -0.78822448011714      0.46902410021541
  H   0.65599428683986     -0.08503995948220     -1.14653321091987
  H   0.61483634779035      0.96185625103531      0.28344946848682
  H   4.21640832183937     -0.00049441455746      1.23500111728076
  H   2.74402812619405     -0.80631185237226      1.79569967315935
  H   3.22276755810841      2.06209968809644      1.75187583038895
  H   2.96588880402265      1.12260184094198      3.04732303442227
  H   2.82231083557836     -1.16550663590236     -1.92109855027184
  H   4.29077727523718     -1.08331563708348     -0.81879850714382
  H   1.75083594065964      0.87536153706004     -2.68645434220685
  H   3.25339886130456      1.68498893574017     -3.15429519654027
  H   2.13771164615823      2.46686046631856     -2.03116799070566
  H   3.30609835315644      3.22171467988920     -0.23993767485048
  H   4.32206064032105      5.08444881763963      0.95843669118526
  H   5.90401589644556      4.98991575276762      1.45915821991098
  H   7.64607670814889      4.63508021011839      0.45262765836908
