29
Coordinates from ORCA-job 23366optt
  C   1.14185505371883     -0.24665119978180     -0.79834120806842
  C   2.65549322675307     -0.16312629204081     -0.64036871361088
  C   3.08532323469565      1.18129351902994     -0.05544605931552
  O   2.45599210937203      1.28747050247176      1.24304321448510
  C   4.57117681339943      1.38114476611116      0.00515438362885
  C   5.39094962879981      0.30656857162015      0.35950563761264
  N   6.71204661904459      0.30558042070598      0.33400215494437
  N   7.38362882505008      1.32459926818186     -0.11018495160339
  N   6.61328405347876      2.46517741745908     -0.52259076149670
  C   7.34171786383087      3.50108146606843     -1.00372602537412
  Cl  9.03556132253548      3.23819320879340     -1.26127189931128
  C   6.81535197174438      4.71084573284040     -1.29463699425936
  C   5.42035986799585      4.97808271162817     -1.03722556361237
  O   4.92844416571792      6.09984824511780     -1.24085975142746
  C   4.65107970275571      3.86174521734917     -0.52788493977192
  C   3.23176167169159      4.20829712468950     -0.17391407653910
  C   5.22678365960745      2.61232262987972     -0.34794473118180
  H   0.83612569133466     -1.21301368641908     -1.20365643307095
  H   0.77854767787879      0.53133578893982     -1.47389013622550
  H   0.65319307168448     -0.10698350128117      0.16601289575434
  H   3.14858735770419     -0.29200477294565     -1.60672691855273
  H   2.99692453920933     -0.96954396881436      0.01051247768324
  H   2.64934959765757      1.95115071108976     -0.69401101675124
  H   3.13149625548677      1.61613942448789      1.84281656743312
  H   4.95443722227305     -0.62280828037399      0.70469297118775
  H   7.43987162880036      5.49588815862938     -1.69204230866308
  H   3.21951385237358      5.25758534620049      0.12138476441277
  H   2.83339945528050      3.59935663992933      0.63525990783871
  H   2.55174386012515      4.12742483043354     -1.02766248614504
