30
Coordinates from ORCA-job 23371optt
  C   2.91161105046498      3.09721466074758      0.06079920949117
  C   3.12290947320552      1.59591209882084      0.18360081878398
  N   3.64212564233554      1.27485047709848      1.48753250145153
  C   3.94365503013591      0.04611498617853      1.71181704695050
  N   3.80120111935454     -0.95590631512760      0.77328118557158
  C   4.52678059239132     -0.33954155733921      3.02809315206321
  N   4.94476568882341      0.69948305397899      3.77814179436949
  C   5.47852355702677      0.59154550546285      4.96183914849150
  Cl  5.97263899325444      2.16338266875243      5.66748216205233
  C   5.71087285989048     -0.51721929864290      5.73186867683662
  C   6.31672541734318     -0.58644848225587      7.09509281776538
  C   5.32663931365621     -0.79899327170130      8.23690345668936
  N   4.17392855955803     -0.07998376707641      8.11864153649600
  N   5.54226132301760     -1.51348201692427      9.27327207344304
  S   5.19059263327909     -2.06217675358063      5.09078478590137
  C   4.59439888889903     -1.71113771308420      3.43847185061294
  N   4.24061009984823     -2.74894224329041      2.74175890296020
  H   2.51287977628060      3.36883449543527     -0.91981223424136
  H   3.85821180108158      3.61629753121555      0.21413437675150
  H   2.21992259871132      3.43880344961832      0.83155072495639
  H   3.80412380953142      1.25548434098673     -0.61341368913708
  H   2.15951173511530      1.08888141534679     -0.00488226781797
  H   3.14226469379117     -0.77912434798803      0.03438802102778
  H   3.83464630017808     -1.90246053069276      1.14498858488017
  H   6.83963879317471      0.34970699190243      7.29601226590071
  H   7.04912382858886     -1.39767573071536      7.14755363708342
  H   3.91544818777694      0.23698240892577      7.19715062782679
  H   3.43366035335241     -0.31621379373931      8.75724494567674
  H   6.45557572881311     -1.95249289819854      9.20560759311022
  H   4.37375215112002     -3.61369536411378      3.25609629405232
