27
Coordinates from ORCA-job 23388optt
  C   1.01345172578909     -0.20028853466043      0.14943327256880
  C   2.48717554457848      0.19557247623910      0.02517000769328
  C   2.93229812041745      1.09443573746201      1.14597516603768
  C   2.81834585037847      2.51256503085543      0.96862131178635
  C   3.17542854618170      3.34224315167651      1.98973989843957
  C   3.67169934725653      2.87822320618955      3.22704488431270
  C   3.95116129136057      4.00473359466661      4.04967974498634
  N   4.47472590474877      3.99016667298974      5.23706896045054
  O   4.55630946296964      5.32182993382583      5.73016803521527
  C   3.54669243180924      5.21745394825821      3.26933314959415
  C   2.11893308662311      5.31783827887332      2.88274244483414
  N   3.10484885520170      4.77459274098062      1.94134142595442
  C   3.77559842974558      1.46212148498195      3.44141982016490
  C   4.22209893667945      0.90806439714962      4.65875658901900
  N   4.58208196355679      0.42960103137218      5.64929315541592
  C   3.39130334656885      0.62890640465148      2.35335718363377
  Cl  3.51056615410661     -1.10060773119247      2.59908566068952
  H   0.69456917887199     -0.82288535872079     -0.69040827705198
  H   0.38312254158129      0.69059190039827      0.17735269191952
  H   0.85123466423296     -0.75622204722722      1.07365412793377
  H   2.63831172903642      0.72265952460638     -0.92097513254775
  H   3.10150611761045     -0.70496891821268     -0.00936523565893
  H   2.46147518581664      2.91565061329563      0.02883781454679
  H   4.98382532794276      5.18595225096158      6.57816163820789
  H   4.15718775113610      6.10853980091085      3.32150287701966
  H   1.70235614991909      6.27583914254474      2.59502544417890
  H   1.43369235588024      4.61139126712396      3.33698334065573
