27
Coordinates from ORCA-job 23393optt
  C   2.17581346512439     -0.01503481315781      1.97253924936052
  C   2.35552807090380      1.48640691282995      1.77720049879140
  C   2.37070465341492      1.84207358188239      0.28732654676635
  C   1.94490246226475      3.29717376097458      0.09653272596818
  C   0.49910584676150      3.42016440843954      0.54514079957275
  C   0.28472500058957      2.84663293159571      1.92565844391459
  C   -0.90042547856974      3.03245639028275      2.57020145467357
  Cl  -2.13396188740346      4.06844499748105      1.94189803131278
  S   -1.13651428596852      2.35737710492570      4.16527654173343
  O   -2.01981099362354      3.21414844294484      4.92047767732413
  O   -1.52493628377266      0.96505007646538      4.02715617896961
  C   0.55277933813576      2.54786505866637      4.66822244640197
  Cl  0.76393894080844      2.08922860007283      6.36199009064752
  N   1.48052404299011      1.97981855917407      3.86564483700024
  N   1.34330156100826      2.23461796719409      2.52195410781499
  C   3.75497459907483      1.64019741932522     -0.25969510719270
  O   4.03564943689708      0.96925058831615     -1.21584846097027
  H   2.93673564309311     -0.56219520004671      1.40980842934376
  H   1.18923116204131     -0.31680929059463      1.61473566914696
  H   2.24824890340731     -0.26157295843912      3.02896564081640
  H   3.31181451547293      1.78748042588239      2.22251763437446
  H   1.69192136393809      1.19106038774301     -0.27000702374841
  H   2.04627739742430      3.59742271129805     -0.94813677113361
  H   2.58496905748422      3.94728524715593      0.69967687461957
  H   -0.15978414261912      2.91553362510829     -0.16737678688899
  H   0.18537224757170      4.46527475342499      0.56329696529813
  H   4.54891536355060      2.19564831105494      0.28384330608262
