25
Coordinates from ORCA-job 23391optt
  C   0.99035684821674      0.48203943872636      0.40053327102542
  C   2.38871964671821     -0.09404764477845      0.35784969627415
  C   2.62310192248856     -1.53750594438505     -0.20680412647177
  C   4.02507287808648     -1.02875424215121     -0.60659533918104
  C   5.06109631791392     -1.03044617635661     -1.67087200846092
  C   5.80810719133959     -1.91850406115502     -2.39640736869261
  Cl  5.36315493564750     -3.63385873564910     -2.30425849990753
  N   6.83634533932401     -1.65248137749944     -3.16635516678854
  N   7.24166280542004     -0.31996863090437     -3.27270117898225
  C   6.59670902117583      0.59752211505240     -2.54878400043691
  C   5.53305554820510      0.34580864622056     -1.71604680401456
  C   4.69378045030967      1.26421183217281     -0.82621396557079
  C   3.42466975632794      0.38623879856052     -0.72670002460748
  C   2.67654047428823      0.55168323076452     -1.97785684733338
  N   2.02992346469506      0.75074155141464     -2.90594645960485
  H   0.37854981490045     -0.06126466507428      1.12414331618036
  H   0.50781869192022      0.41261885538382     -0.57499869898549
  H   1.00865221068476      1.53378410260297      0.69441270272786
  H   2.86812874701818     -0.01219616883371      1.33520948095965
  H   1.97681669522114     -1.72010063371084     -1.06646748368040
  H   2.56949524951154     -2.37432697868010      0.48719752549591
  H   4.56057158220224     -0.98649280471010      0.35525499557835
  H   6.98312851274764      1.60809709924393     -2.67134635532768
  H   4.52436914231883      2.25397954921421     -1.25387397560220
  H   5.11617275331811      1.38822284453156      0.17862731540673
