26
Coordinates from ORCA-job 23395optt
  C   1.23436695628410     -0.06324896941244     -0.00424030173812
  C   2.73048315894642      0.03505059895769      0.01796105514023
  C   3.40166145721981      1.15803465638252      0.50622532204895
  C   4.77182378620233      1.21541469609006      0.44621343656705
  Cl  5.53317829167350      2.61858495169059      1.15165214630916
  C   5.52426888048813      0.17427728353456     -0.19200735367977
  C   4.73899367325346     -1.02996469340875     -0.41480256809701
  C   5.37087199831422     -2.40708832431192     -0.47513321133016
  C   6.41123561431197     -2.73637991032485     -1.53683687261014
  N   6.76536794544327     -4.15561318867543     -1.41280403404503
  C   7.61960846982806     -1.82363293875050     -1.42228092185965
  O   7.26173204725636     -0.49807595196358     -1.68989623796239
  C   6.88047553794201      0.32613550440881     -0.60527312951480
  O   7.71163366676215      1.13671538573604     -0.21461702635474
  N   3.42732955595964     -1.06292334761859     -0.34506823925503
  H   0.77754052038868      0.82889064822809      0.42726962785620
  H   0.89344770122270     -0.93636336273807      0.56018608942759
  H   0.85414052089825     -0.17645150417673     -1.02436152530334
  H   2.85382813280455      1.98181867470528      0.94638512403830
  H   4.55234101087946     -3.12036138843711     -0.56321762633661
  H   5.85465253581899     -2.57689539763484      0.50067792055527
  H   5.97089666205859     -2.58461223300966     -2.52676336112625
  H   7.07657850593039     -4.34094279284927     -0.46347968877088
  H   7.54721488549211     -4.37384972326379     -2.02183483860723
  H   8.37635340603482     -2.11782344242301     -2.15943532765807
  H   8.06897507858593     -1.91969523073507     -0.42251845769349
