25
Coordinates from ORCA-job 23404optt
  C   1.12393767623115     -0.07221695542642      0.97311642205754
  N   2.33582180905896      0.13615237873895      0.18498350173785
  C   3.05050997539619     -1.06642262441079     -0.09917713272200
  C   2.28216200583972     -2.23679574303318     -0.60387639325243
  C   4.44993834228144     -0.99325909503608     -0.11105318274549
  N   5.38545389788782     -1.93784264295452     -0.36254253478509
  N   6.56893598892048     -1.34628038065645     -0.21879864141797
  N   6.45543069287833     -0.06282811368725      0.10779428479404
  C   5.14246330037742      0.18908663063444      0.18383701967452
  C   4.39180112318403      1.37992814426800      0.43185507732905
  Cl  5.23567872105253      2.87488999476629      0.71426122878940
  C   3.03766241688116      1.33206456783051      0.41346720009769
  N   2.22072844045775      2.47441728286641      0.62271689132001
  C   2.41136554206021      3.60314947490088     -0.26727391915848
  C   1.20691401539715      2.75031095658252     -0.38217456419115
  H   1.36330772376739     -0.56032675888026      1.92760435749893
  H   0.44039640718282     -0.71605744050725      0.42087585915769
  H   0.62932119335438      0.87200185479508      1.17726598128635
  H   1.65034568148477     -1.97148211395424     -1.46514070810303
  H   1.62547717844782     -2.69943460705359      0.14261561454694
  H   3.00204186322813     -2.98910807529325     -0.92520322646266
  H   3.16418441952223      3.49724589974404     -1.03778238838182
  H   2.35877527852293      4.57643832672712      0.20336321408613
  H   1.15651180951362      2.07029504155699     -1.22494104097823
  H   0.25383449707143      3.08907399748202      0.00620707982222
