32
Coordinates from ORCA-job 23413opt
  C   3.56925446411653      1.49900683846609     -0.02745270065672
  C   2.72684205223125      0.26068417035524     -0.32708418120976
  C   1.60249628684732      0.58388351547197     -1.34052157572476
  N   2.03157064954550      0.91895905933525     -2.69259296567148
  C   3.49714932477016     -0.98270803865121     -0.73823750208304
  C   4.38910739396156     -1.09192478845892     -1.82352172307680
  Cl  5.64216053886848      0.12211194059121     -2.04817431855946
  C   4.40024261740925     -2.15851646405439     -2.75111987910192
  O   5.24655409906311     -2.37269947820436     -3.62525806227219
  N   3.27499095876073     -3.05005217079026     -2.65899610990852
  C   2.58309488836549     -3.08027978535330     -1.58846138241764
  C   1.50587739239910     -4.13094886563388     -1.45516331804657
  N   2.73984881250068     -2.19393452775882     -0.53762349793023
  C   2.36571616690163     -2.59018016899968      0.80689820164793
  C   3.41559795681832     -2.22160473948779      1.85584865986859
  C   1.03242722269473     -2.06880114469329      1.21474240628601
  N   -0.00411049144490     -1.71087746751292      1.55222236951461
  H   2.94859152727649      2.25454574672566      0.46198671412227
  H   3.99498450070956      1.93323189299694     -0.92991938675813
  H   4.40660239607363      1.25083524436630      0.62692709882267
  H   2.20428351336286      0.02354089573244      0.60822945339595
  H   0.99877070408155      1.41227520849100     -0.95168507077686
  H   0.94043573747333     -0.28427848207478     -1.40460153893603
  H   2.69352708805931      1.68693889717741     -2.66746781210201
  H   2.54916375301650      0.13348636260776     -3.07874579002902
  H   1.29853023127018     -4.51227070733568     -2.45093421992858
  H   0.59270128230923     -3.72853715174544     -1.01145661382697
  H   1.84377811530021     -4.96948713704642     -0.84083168266814
  H   2.25105096786304     -3.67422501595157      0.82527337822673
  H   3.52433870236001     -1.14308961310363      1.94174722621780
  H   4.37355329533463     -2.63488988393803      1.54453465340647
  H   3.12586785170044     -2.63519414152285      2.82243917017583
