31
Coordinates from ORCA-job 23415optt
  C   2.10654285850928      0.08401458349790     -1.63084349169063
  C   2.48060627500479     -0.30575398435723     -0.20391454562755
  C   3.13170337408936     -1.67235829289674     -0.13507746706934
  C   3.55119731762005     -2.25834698382870      1.22467269015124
  C   3.16733710965600     -3.65001928523474      0.68330731359932
  C   2.29152893170724     -2.97048252274110     -0.40359364423693
  C   0.84065449387829     -2.83736523783184      0.05939753813811
  C   0.09373702152904     -4.16734960743835      0.09641724892018
  C   2.42896248369151     -3.48715246473030     -1.82793922182312
  N   1.38390385784792     -3.29160444287924     -2.60699169994888
  N   1.45921932523517     -3.67385949678702     -3.94687011273636
  C   2.62729001656727     -4.19186705176323     -4.28802953498108
  Cl  2.76467040023505     -4.67530955988566     -5.98128951798556
  C   3.70640276445226     -4.38234725913598     -3.46999207557334
  N   3.61616154707394     -4.01838388675200     -2.14526546894116
  H   1.62796446723310      1.06506754392805     -1.66774797146222
  H   1.43278854024469     -0.65379612537007     -2.07050069182842
  H   2.99682308556548      0.11702348177415     -2.26317262824811
  H   1.58973161725647     -0.28966208214630      0.43194401143141
  H   3.17249614631226      0.43247179595681      0.21851994439082
  H   3.98917920365504     -1.70750481969757     -0.81329617305939
  H   2.88346442409444     -1.92813791005868      2.02403756804110
  H   4.58286009460439     -2.10159426313662      1.54349348095565
  H   2.65773259296694     -4.33176308702386      1.36622072229252
  H   4.01088258854001     -4.15211362666245      0.21521356924153
  H   0.31146253607311     -2.15429344623913     -0.60667453858801
  H   0.83616177361993     -2.39211105995627      1.06039070769845
  H   0.00622585317572     -4.57146903345627     -0.91094709471777
  H   -0.91061733456953     -4.03769020896192      0.50637030808581
  H   0.61496736236386     -4.89837534744086      0.71863322386466
  H   4.62995927176685     -4.81186631874474     -3.83347244829292
