30
Coordinates from ORCA-job 23418optt
  C   1.01054015370586     -0.06580597030132      0.09378707864283
  C   2.53720041167685      0.04180615041156     -0.00730503410080
  C   3.07315094875584     -0.66324372478729     -1.21733748129110
  C   3.69354490496093     -0.05509672012368     -2.26353330618273
  N   3.93358251529583      1.34844474413471     -2.21784202717118
  C   2.96667570534097      2.07569002832138     -1.42374258564584
  C   3.05291548370538      1.50284704440058     -0.00256684851175
  O   4.41199153198666      1.53400560705053      0.40994006549568
  C   2.28228237586295      2.34081371432960      1.00972982011213
  N   2.70190211712525      2.13646093827176      2.29970811856167
  N   1.29442047244616      3.10795997299789      0.77007386599579
  N   4.15083598423015     -0.68662322536895     -3.36225132811051
  C   4.01725165336489     -2.02408802726886     -3.34868680456090
  Cl  4.69853657941089     -2.87189324799592     -4.72259973272171
  C   3.43604822495306     -2.82015077573650     -2.32386658910342
  N   3.35461154554790     -4.11180291866424     -2.19155493407568
  N   2.85538760837067     -2.04994779744626     -1.30227890802392
  H   0.70938939345901     -1.10337533105784     -0.05041186557185
  H   0.52901702968442      0.52579232748363     -0.68800254794543
  H   0.64696015883735      0.28125467417126      1.06231251175412
  H   2.96215412466224     -0.41479808436819      0.89831488418827
  H   4.05191662691884      1.69626001013832     -3.15966081937567
  H   1.94141919659286      1.95727902212859     -1.80115251127719
  H   3.22697427765028      3.13545843873146     -1.40602615289526
  H   4.92387982133817      1.30001374400762     -0.38164076534338
  H   3.66701194609987      1.86415902107444      2.40279248537770
  H   2.34011803764114      2.79404066776976      2.97134634303894
  H   1.06895442612084      3.10643034730336     -0.21951817628427
  H   3.79837498301769     -4.55636167037451     -2.98779115253307
  H   2.73695176123696     -2.57252895923287     -0.44623560244143
