29
Coordinates from ORCA-job 23412optt
  C   1.44385531782139     -0.44461275990824     -1.13356464802270
  C   2.55332623534121     -0.14107273035308     -0.13913382884566
  C   3.90656945781278     -0.12815541887639     -0.78837639919822
  C   3.54455198727019     -1.24455514642707      0.14784423337836
  C   2.79189643253060     -2.52309694929208      0.27758753954761
  N   1.84289786142053     -2.25092007844646      1.40462319910391
  N   1.40498205419412     -3.43743635274269      1.91738354761328
  C   0.57288575332625     -3.36822573927161      2.98087213798533
  Cl  0.38298394200686     -4.90458199435544      3.82394529836426
  S   0.74560910910362     -1.97436863467404      4.02093915846263
  O   2.07428815492485     -1.91874309820732      4.63183625506339
  O   -0.37741261115460     -1.83827754548430      4.90605369472467
  N   0.71779234951253     -0.80852645955266      2.90432356325368
  C   1.47365434968474     -1.02813961405544      1.84096198038880
  C   1.98677778478758      0.27008440711651      1.19361921634726
  C   2.90733706614517      0.96628204123203      2.22270879811819
  O   3.74104414620031      0.10482894272150      2.96359432952197
  H   1.79988927406302     -1.03065042549318     -1.98172138244599
  H   1.04449795407863      0.49621234190510     -1.52127642974289
  H   0.61977791175823     -0.98870611033943     -0.66647272550268
  H   4.70878958530240      0.49452136135150     -0.41220798064136
  H   3.89602631533666     -0.23516067228716     -1.86558119467550
  H   4.04078834181043     -1.05672603299426      1.09327845746559
  H   3.38144426703424     -3.37518110339055      0.60889002216324
  H   2.21438702663325     -2.82013449924298     -0.59769613282951
  H   1.10835941861747      0.91314967377102      1.07474248295264
  H   2.26616345770633      1.54010535757271      2.89548688826135
  H   3.56528785166706      1.66330089785709      1.69654146701990
  H   3.19554920506409     -0.44821365813306      3.55379845216844
