24
Coordinates from ORCA-job 23422optt
  C   0.96695005504073      0.25695180829419      0.10137285722129
  C   2.37760151779058     -0.18739455803013     -0.15525189090776
  O   3.37326569427578      0.83476326310663      0.24231047737395
  C   3.97913791551957     -0.03326609655828      1.08770385667879
  O   4.95090405309316      0.16949495386207      1.74715491883763
  C   3.02170283795308     -1.17986148377487      0.81911352144729
  C   3.61354485829493     -2.45947058852167      0.24245469973512
  C   2.53355290299590     -3.43910946486898     -0.11800266307773
  C   2.59214741691486     -4.75389532377514      0.25275335138220
  N   1.65068146678610     -5.68254779205143     -0.07252791562238
  C   0.64269588003748     -5.13277305869551     -0.79050972186166
  Cl  -0.65868653657990     -6.23266182343747     -1.27490685017696
  C   0.55389017799408     -3.81564084792344     -1.16513641426010
  O   -0.49975649034534     -3.32414296592314     -1.88241477533861
  N   1.49235610916644     -2.90932924167966     -0.85296367314992
  H   0.71635107531733      1.12755070388792     -0.50625461186151
  H   0.82913599050993      0.51248161634488      1.15409341497128
  H   0.30808093619307     -0.57070946596536     -0.16369088919358
  H   2.53805445746509     -0.45585281559534     -1.19654702136244
  H   2.38950030569529     -1.39875674859905      1.68199983965264
  H   4.30679554198334     -2.90028363755320      0.96133783555133
  H   4.19319233159720     -2.18835419086114     -0.65002490028981
  H   3.43509244068672     -5.10779731307363      0.83970854943956
  H   -1.09919093838541     -4.06039492860823     -2.05277199518861
