26
Coordinates from ORCA-job 23421optt
  C   1.17317964668746      0.21976840442338      0.36857710170619
  C   2.67407090826368      0.22997010095965      0.30728854802554
  C   3.45147763666960     -0.81712296461023     -0.40172764294155
  N   3.27422318770634      0.50621613895605     -0.97708924230600
  C   4.46403374470631      1.36869852584775     -0.96477452996578
  C   5.27789188936394      1.06283068314660     -2.21103649915333
  N   6.56822034688953      1.75180736530836     -2.17490446855455
  C   4.03782841204219      2.81610175047622     -0.85414916308919
  N   3.53359559776590      3.15482704065379      0.35836158426967
  C   3.05586148073024      4.34283776346648      0.66436475676940
  O   2.59100728173537      4.73889187896740      1.71339154005413
  S   3.04374424695844      5.69737656143289     -0.65022018679397
  C   3.82877490449163      4.83098786664910     -1.93355668243700
  Cl  4.14669464698705      5.76709347945991     -3.37952143646998
  N   4.19806384356749      3.58414592001307     -1.92496136471026
  H   0.81855416269452     -0.34352111392204      1.23463587291508
  H   0.76450604429417     -0.23009202640425     -0.53730778358643
  H   0.80224748425448      1.24308516697941      0.44559415818318
  H   3.16724708450882      0.69491508060366      1.15414714111690
  H   2.94073985153558     -1.62567688768109     -0.91285826691733
  H   4.43582853878568     -1.06228784545607     -0.01237621896245
  H   5.07819102709873      1.14125428418235     -0.07840709395669
  H   4.66873236777798      1.32037725671269     -3.08335354914753
  H   5.46220150854258     -0.01492123968518     -2.23089575918407
  H   6.38494126371258      2.74923905914284     -2.23298986411960
  H   7.10814289222966      1.51019775037723     -2.99723095074434
