24
Coordinates from ORCA-job 23438optt
  C   1.27296181198147      0.91117657101724     -0.38801914364144
  C   2.48098632412557      0.09150305344264      0.07198267189686
  C   2.95928874379638     -0.85944062858687     -0.98521621317558
  C   2.48961193432898     -2.16165474835866     -1.02116770867602
  N   1.58818415081876     -2.61703695429761     -0.13245733024103
  C   1.16709180573304     -3.86797778537942     -0.18859347174133
  O   1.66508403031475     -4.82127884176901     -1.12972293389774
  C   2.52821869883148     -4.34990331885510     -2.01593250776923
  Cl  3.00893137527845     -5.59114040862070     -3.12240759245219
  C   2.98744721635045     -3.08798926173385     -2.06510796415363
  C   3.92158049610977     -2.60111153849902     -3.05018719188321
  C   4.33092122078374     -1.32850393003848     -3.01355114511101
  C   3.87087130832571     -0.37240016400015     -1.98751401643529
  N   4.27061864222822      0.86462380247449     -1.99088043018952
  C   0.20631064179272     -4.42538094898762      0.65253915057043
  N   -0.59519716595269     -4.89340335504418      1.35377499963847
  H   0.94762059856933      1.60839066411192      0.38850040375123
  H   0.43882751429997      0.24837439436746     -0.62453806065997
  H   1.53071848890670      1.48548775696537     -1.27926979515096
  H   2.21372575362405     -0.47665272809625      0.96343150692836
  H   3.29761363373332      0.77281422148108      0.31842417150302
  H   4.27638615144176     -3.28101470433222     -3.81423497051279
  H   5.02837174077182     -0.95393566409824     -3.75573026535172
  H   4.90682488380620      1.01445451683721     -2.77212216324569
