28
Coordinates from ORCA-job 23448optt
  C   2.99860333374916      1.41057864310841     -0.55391176374117
  C   2.56223044759269      0.07671827304997      0.03512669964955
  C   3.02218613187079     -0.05227234864945      1.48066531496909
  O   1.13248166271149     -0.03553074612744     -0.02422355646250
  C   3.09373655044318     -1.08292185922016     -0.80363443261856
  N   4.53406648571479     -1.07287593654106     -0.80532117565939
  C   5.09808841982734     -2.05740584585345     -1.41788120952875
  N   4.45404688008966     -3.06681477432637     -2.04827652584318
  C   5.18674060189563     -4.04441639108343     -2.61657517882934
  N   6.56956657548281     -4.01613746244687     -2.58012302849635
  N   7.26105627141731     -3.05029426756895     -1.98498383380399
  C   6.58730943715329     -2.11509036010415     -1.43663057582078
  Cl  7.49465654487962     -0.85212952988176     -0.66567731549408
  C   4.62005119468897     -5.17500529777815     -3.26963510763424
  N   3.23093100659695     -5.16764151142016     -3.39069507042607
  O   5.31197495601472     -6.10708559628368     -3.73106770848403
  H   2.61223183565687      2.24215288600986      0.04480807303986
  H   2.61960923463926      1.50675910563279     -1.57285290141686
  H   4.08702354653719      1.46222847168812     -0.57691116521084
  H   2.63132522079402      0.77382868787430      2.08368922461150
  H   4.11110727005323     -0.04333792295819      1.52462034371178
  H   2.65942592501576     -0.99298876107342      1.89828132545443
  H   0.76043504949198      0.70106879262568      0.46999910672868
  H   2.68473567088975     -0.99608743989450     -1.81981905587379
  H   2.69184334149830     -2.02152929875807     -0.39789121806218
  H   7.08056383933138     -4.77865904354096     -2.99330553466948
  H   2.77326820835158     -4.52377694253652     -2.75959095866401
  H   2.83670435761213     -6.09433352394232     -3.43218277142528
