27
Coordinates from ORCA-job 23442optt
  Cl  1.86386347574238      0.79161046200227      1.22984527506677
  C   3.27653585580440      0.13415330985476      0.44542714766005
  C   4.25796566350068      1.07876412183688      0.00716849482712
  C   5.49428948276566      0.58342454051227     -0.42266417098349
  C   5.72775140681061     -0.76037468686575     -0.44480700831428
  N   4.73649852790143     -1.64962823814694     -0.05804360016199
  C   3.49479429313282     -1.22266417939400      0.37684683847741
  N   2.61709991319995     -2.22732688158267      0.70057630335302
  C   1.18626672977615     -2.07531474168468      0.44657384645485
  C   0.64254115233545     -3.43752780069874      0.10054785428385
  C   -0.73426177725406     -3.67316112431022     -0.34558526779346
  N   0.39647516722203     -3.87151338422012     -1.25421615585268
  S   1.53353157723990     -4.55331654073573      1.17425462907056
  O   1.04117525112976     -4.31078452654623      2.52243036416060
  O   1.49577821354754     -5.89706752894786      0.65883601581619
  C   3.18908932042929     -3.64070663858162      0.87146557302231
  O   3.84709337827038     -4.11125416508273     -0.12007968385546
  H   4.03698169237976      2.13407126952264      0.04232885512245
  H   6.27874851973741      1.25925062036592     -0.73744373177640
  H   6.65729923699409     -1.20417588045813     -0.76605744773483
  H   4.76046950118207     -2.65638832204544     -0.29155046416432
  H   1.01722781470953     -1.37495755663604     -0.37676086359532
  H   0.66196263532236     -1.69721544737512      1.32677612181616
  H   -1.36443178534346     -2.79900623381555     -0.46957819295088
  H   -1.23886217592785     -4.58546102747975     -0.05204502982096
  H   0.51312262569765     -3.08751063358302     -1.88906279170942
  H   3.65599430369392     -3.65191878590433      1.87581708958210
