25
Coordinates from ORCA-job 23441optt
  C   0.84282622146294      0.25144338597905      0.11949050843095
  C   2.33438490723772      0.03829211492229      0.01510710079960
  N   2.88472803745667     -0.51109069126793     -1.22982384617973
  C   3.11845525169149      0.90070470181902     -0.92713600359414
  C   4.45920807457740      1.49854891486135     -0.66738846065712
  N   4.36494061523950      2.85127809552858     -0.78635871894528
  N   5.51065234573123      3.57913189657023     -0.52352908253318
  C   6.56549693694430      2.89085141508437     -0.21925413470202
  Cl  8.00595612522511      3.88798341923790      0.09821665193709
  N   6.77321553871624      1.59470843723487     -0.10582072032221
  C   5.62484953915847      0.85116746540208     -0.34026662081419
  C   5.86368617446468     -0.62910693433987     -0.25076988081414
  N   6.56653322021862     -0.94726130298226      1.00356050027599
  C   2.97203055469196     -0.43018117872558      1.22419110892218
  C   3.53754430257333     -0.78607949400298      2.21843626351722
  H   0.45686339097681      0.66322121337514     -0.81481028382912
  H   0.61653862013698      0.95152182694456      0.92414221397800
  H   0.33273864324626     -0.69102464898176      0.33065494069381
  H   2.13906078305534     -0.59500671118508     -1.91354905308816
  H   2.49779289088860      1.61673581690547     -1.45667908687602
  H   6.47026119964783     -0.90971537513912     -1.12660386891830
  H   4.93273263055853     -1.18399853083953     -0.30140431637432
  H   7.26048058172471     -0.21656510918996      1.14160771605597
  H   7.07279470004411     -1.81868761092165      0.89938191338395
  H   4.10922871433108     -1.07987111628919      3.06460515965314
