26
Coordinates from ORCA-job 23459optt
  C   2.01535418997945      0.67868975749865      1.39393948848155
  C   2.41857288104417      0.10049717252407      0.06677966313938
  O   2.05782430997957     -0.99014216047833     -0.30586591797762
  C   3.32551449988910      0.93408559207437     -0.83423179779599
  C   2.64401766488094      1.28272528403899     -2.17078107777631
  N   2.11324531811250      2.62099385099136     -2.00450511967590
  C   2.70683753451639      3.17669709318390     -0.98126625488070
  N   3.60003194765566      2.26012787068177     -0.31173938688428
  C   4.63383532845822      2.45822004572738      0.53890414506685
  O   5.28409862601414      1.53385332284886      1.00632259489976
  C   2.46955633952379      4.49071763758673     -0.50022872136121
  N   1.66020829627466      5.31227161220885     -1.24750120504872
  C   1.43905929178763      6.50803786276709     -0.77612529922430
  C   1.97229059821491      7.00667179525837      0.42869912106296
  C   2.77192678339073      6.07982116879029      1.09625691441301
  Cl  3.50368527969246      6.57920297342730      2.62846981331733
  N   3.03019416626247      4.88179524031118      0.70090761231639
  H   1.35087861153780     -0.01301216184862      1.90518327588442
  H   1.53119199157665      1.64662356261358      1.24344811375722
  H   2.91432771668534      0.86333281781914      1.98648185335985
  H   4.25309888351699      0.37267157555882     -0.94615033369701
  H   1.86225969748265      0.56104154611143     -2.41035969070535
  H   3.37812873884681      1.25750348584673     -2.98712741804072
  H   4.82534228044424      3.50579516804118      0.77500076832543
  H   0.79666792292532      7.14969401025791     -1.37683721522338
  H   1.78685110130737      8.00008387615894      0.80132607426735
