21
Coordinates from ORCA-job 23450optt
  C   1.14147867608160     -0.36236338502592     -0.07773368632555
  C   2.43907331485924      0.35117664977408     -0.35495194500841
  N   3.47513503259051     -0.49778413194557     -0.52728545063464
  C   4.72839842700872     -0.19434644073498     -0.81397388128289
  C   5.45635828329669      0.98727470346426     -1.04425834007746
  C   6.87041251381259      0.90066029218403     -1.37805020833946
  O   7.59748650549446      1.85599035971521     -1.62099345746659
  N   7.49548506769999     -0.38403428072446     -1.43522803111050
  C   6.77494499972148     -1.38748882550604     -1.20197137540334
  Cl  7.46890826817862     -3.00310457870116     -1.25164202649045
  N   5.47062155868449     -1.38428648158592     -0.90467305932209
  C   4.81018858639162      2.32137033249235     -0.94741108839683
  N   5.42463409412938      3.43616768492122     -1.13143770729830
  C   3.38838895234856      2.49840050671352     -0.62206798663985
  N   2.38300271449071      1.66663656994174     -0.38458502189442
  H   0.88478348483094     -1.01761704831706     -0.91469332244433
  H   0.34242872509449      0.35817765382824      0.07852806024252
  H   1.24003517614394     -1.00116588646578      0.80371234007830
  H   4.94687416751229     -2.23031509982612     -0.74526121222866
  H   6.39990799079980      3.25580490938462     -1.35879219666802
  H   3.13545346082964      3.55284649641368     -0.59023040328900
