30
Coordinates from ORCA-job 2345optt
  Br  0.93596477374575      0.39727690257831     -0.10918845503995
  C   2.83352141136734      0.18003774588504     -0.25500835139797
  C   3.41741681888167     -1.03519391669223     -0.38821257129474
  C   2.52237722189947     -2.27625760568803     -0.60389392908076
  C   2.03959275191470     -3.12271798750796      0.66088252697506
  C   3.12513248822922     -4.25730252883324      0.90884735015549
  C   4.19549868307121     -3.52045749685785      0.11219009790191
  C   3.45737264566637     -3.28868911554529     -1.20799422447941
  O   5.58812479413809     -3.59067768011547     -0.04699756585728
  C   5.95238755753181     -2.21128832879371     -0.39970452688234
  C   6.50684130529575     -2.16603131204609     -1.80078634860772
  O   7.50158988625702     -1.53391260115915     -2.09451103954871
  C   4.90360689975094     -1.05219337803833     -0.29223600166927
  C   5.55281603972530      0.18011999164781     -0.04983250673007
  C   4.89858331158476      1.43426189575094      0.01969290185286
  N   5.38328609233164      2.63402646581558      0.15348593956825
  N   3.50014245553445      1.36500473894129     -0.05556478205839
  H   1.66300306325008     -2.00323715634741     -1.21152258129560
  H   1.06030938844681     -3.55166074840258      0.44300512371445
  H   1.94102888980479     -2.48979148279747      1.54323588823469
  H   2.81522952763433     -5.22458939752108      0.50711810594519
  H   3.35576438212570     -4.36090422454531      1.96823945222408
  H   4.12373159749612     -2.61760488129651      0.69955988075714
  H   2.95386505885537     -4.19874999834197     -1.54825213986467
  H   4.06583047545480     -2.88981394748005     -2.00972599921127
  H   6.77235102561781     -1.92946045412689      0.26524846646247
  H   5.92924993283642     -2.70074175268537     -2.57551273461716
  H   6.63174633197111      0.20081679765636      0.02857175792658
  H   6.39684954102135      2.57523586405617      0.17881093184408
  H   3.02378564855967      2.24449559249055     -0.17194466592694
