29
Coordinates from ORCA-job 23463optt
  C   1.11565805282960      0.36341868068357      0.88051677930791
  C   2.41958477617808      0.17531233461108      0.16153779374408
  C   3.18329033858688      1.21690282941164     -0.24368551762410
  Cl  2.78495015067878      2.90174159207012      0.01832571602036
  N   4.41704670381299      1.00818217012697     -0.86639994821927
  N   5.18118048252837     -0.08466587758548     -0.37902297540637
  C   4.45331184259326     -1.11376617379861     -0.06545698547999
  N   5.10443263393738     -2.27978605000978      0.31328815030970
  C   3.00302759371723     -1.14167819731664     -0.00755037087671
  N   2.41803096563740     -2.35453807601428      0.09740223119402
  C   1.03067208282870     -2.52981320814169     -0.24787887201989
  C   0.70107180897047     -2.04499606932186     -1.66839025584296
  N   1.60617586443897     -2.65431470563626     -2.64777784258838
  C   0.74105476364843     -4.02459754180991     -0.09440447770562
  O   1.20134672120256     -4.47802440073362      1.16399309840374
  H   1.02809858495949      1.37799604742275      1.26606396757034
  H   1.05168856292675     -0.33765657282641      1.71394946072813
  H   0.25491634938479      0.17636237099739      0.23247479058689
  H   4.99845283743402      1.83155191355490     -0.85353095091573
  H   5.99913761993764     -2.40010164707047     -0.13437375922732
  H   4.47404733049906     -3.06899586475707      0.23200984706893
  H   0.33461504059305     -2.00949285430417      0.42979719822016
  H   0.76689129433820     -0.95034186467221     -1.67462252609769
  H   -0.33348365554159     -2.31737286697633     -1.90792111383138
  H   2.52741398743531     -2.67515977763191     -2.21487954245457
  H   1.68637544285801     -2.05959348232658     -3.46301483635070
  H   1.23576003097640     -4.56976555927928     -0.90573651877523
  H   -0.33488967954879     -4.21471232774231     -0.15001804123594
  H   2.00114147215852     -3.93809482092351      1.30030550149760
