26
Coordinates from ORCA-job 23479optt
  C   1.21258724468269      0.41244737398466      0.98079396108307
  C   2.62166300168025      0.37128844031072      0.46147907830907
  C   3.38352867893264      1.54586968625787      0.12081281365429
  C   2.81213629634718      2.85184350715991      0.15047394731767
  C   1.72122680576942      3.34966861237062      0.88062684283939
  C   1.41964002119593      4.66790500175298      0.55797656352557
  C   0.32896259825794      5.44069448382081      1.15857988610445
  O   -0.45651113267117      5.03301028699400      1.98596203997036
  N   2.17967254248344      5.28059987706837     -0.36140250869381
  S   3.30472600938437      4.19634637564704     -0.89837363333812
  C   4.73140803082838      1.29015618993979     -0.32741480317676
  C   5.76739688603770      2.36898689464452     -0.49631821471654
  O   5.96430882682273      2.78641187725247     -1.84469749921689
  C   5.09509075160289     -0.03245475160438     -0.51920564646336
  Cl  6.71149610060010     -0.37367038368475     -1.18220086323539
  N   4.39126479552259     -1.11186311262033     -0.28160566976770
  C   3.17037534326042     -0.86614158027502      0.23881722363145
  H   0.57930228923471      1.05490793045007      0.36712197341289
  H   1.16058074324363      0.78955549551785      2.00392947952919
  H   0.79280200002253     -0.59371305503822      0.97832669365150
  H   1.18706705278028      2.82489683992549      1.65232379148737
  H   0.26397983776478      6.47714546462508      0.77559872604803
  H   6.71483038423830      2.01387786012840     -0.08227348663324
  H   5.48184157063228      3.25928132479668      0.05734807398605
  H   6.15354282418461      1.99140004142983     -2.35458395113689
  H   2.58208049716130     -1.74945068085454      0.46890518182837
