30
Coordinates from ORCA-job 23472optt
  C   1.08169249948204      0.12199344368301     -0.22751566524401
  C   2.59902624192040      0.05190534463239     -0.08240044170038
  C   2.97250359974367     -0.89861170945123      1.06400925913594
  C   4.39857213034492     -1.45254409231510      0.99002422552653
  C   5.38466372542857     -0.40503460437278      0.46766112223776
  N   5.14806053011230      0.88067359635625      1.10162941434945
  C   4.15338081205312      1.71110938260268      0.70251968655516
  N   4.37367483922339      3.05317088092847      1.06143124409341
  N   3.06657137640321      1.42711139741405      0.08750862596802
  C   6.82549317454125     -0.80078208205000      0.68491134006378
  N   7.51168811002647     -0.19145941858187      1.68181441304397
  C   8.78398929576271     -0.62534407002245      1.85687301209731
  C   9.32233254401700     -1.58924266436606      1.08278469541315
  Cl  10.93892336707964     -2.18146958270367      1.28858422976729
  O   8.67469584956039     -2.20535461023454      0.06633601093015
  C   7.32287259705748     -1.80936377849664     -0.16042312192830
  O   6.75226526573305     -2.39342052776563     -1.06988069828143
  H   0.66285356901320     -0.85793100985286     -0.46742105432477
  H   0.81274086466627      0.82938220574575     -1.01211143047007
  H   0.64004694989291      0.47308093634185      0.70876735774893
  H   2.99819333194473     -0.35692264872667     -1.01978957490048
  H   2.26134122497588     -1.72938113797722      1.08469855100881
  H   2.83399576920022     -0.34551781033849      1.99815649633563
  H   4.45661082420287     -2.31773694905502      0.32613473619539
  H   4.72593745381185     -1.77531389075269      1.98191027253832
  H   5.22211858740650     -0.29708690835748     -0.60884445866531
  H   5.91742877990209      1.22183252337484      1.66320819412926
  H   5.31240728566313      3.36934492059477      0.86108997299039
  H   3.67397482777660      3.63900782373439      0.62966473900333
  H   9.37994457305403     -0.18309495998803      2.64466884638275
