33
Coordinates from ORCA-job 23473optt
  C   0.61586146758147      0.91395769355068     -1.42171728951866
  C   2.05248805474455      0.80773149044194     -1.91636059292926
  O   2.17052349479660      1.43590127169498     -3.18752871181512
  C   3.06413224169893      1.37458962431172     -0.92010486563781
  C   2.90339768835601      0.78251010206342      0.47134347338362
  O   4.38716556195389      1.08652867626339     -1.30417654157628
  C   5.06149301240731      1.91462762744399     -2.23813987125844
  C   4.82735606882598      3.41547736147734     -2.01076330402696
  N   5.03183339945485      3.75843720925146     -0.60522343298429
  C   6.52491219874998      1.61807541031142     -2.11098623184110
  C   7.14999281637535      0.93025865840300     -1.12924186139978
  N   8.50010080461537      0.77803745122882     -1.06915792212454
  C   9.15692004162362      1.39843418679312     -2.05181821417939
  Cl  10.91079095309535      1.28682525130716     -1.99961711252450
  C   8.61392117900209      2.14635584222528     -3.13016822262475
  N   9.17169264448640      2.77628971710374     -4.10453154507276
  O   7.22137982651593      2.20888276700492     -3.14329420910616
  H   -0.06121733394243      0.64311811142695     -2.23153476814763
  H   0.39215097297620      1.94000050232905     -1.11484298025260
  H   0.43027279537018      0.25361620278739     -0.57462510348971
  H   2.30934818139769     -0.24055647363958     -2.09138495523041
  H   2.27293634344882      2.38379916538245     -3.05226361144362
  H   2.91147385040116      2.45957967373525     -0.84670814985481
  H   2.97705365090581     -0.30655304888273      0.42947695275018
  H   1.94920654035088      1.05938381887966      0.91855411677764
  H   3.70910428367958      1.16035876146553      1.09899940156623
  H   4.74008942648965      1.68172562890761     -3.26092570426746
  H   3.81100045585724      3.70257973134756     -2.30484690379896
  H   5.51226158703316      3.92191468584842     -2.69706580299157
  H   5.81761592491575      3.20941586995968     -0.26131342055507
  H   5.29612955213094      4.73095191627290     -0.51362540312368
  H   6.55520703814970      0.46617553992892     -0.35360143595537
  H   10.17740527655184      2.67156957337451     -4.02180577674692
