26
Coordinates from ORCA-job 23488optt
  C   1.09754048354742      0.29972991388303      0.03644690170657
  C   2.59661764862911     -0.06122455102462      0.03458512032293
  C   3.19116226294254      0.28139100982919     -1.33562762744115
  N   2.69583157851621     -1.51175623313688      0.22080472103563
  C   3.11706409520992     -2.20939962447883      1.30541528194129
  O   2.89842814141785     -3.40335045306451      1.42148869092216
  C   3.95100790439811     -1.44137606573396      2.32528137671276
  O   5.32251114561014     -1.56682281237051      1.92825787266461
  C   3.55951618884494     -0.00027408526248      2.40325377239227
  C   3.64668006354577      0.76070434577227      3.53690178079588
  Cl  4.06704830997333     -0.00945947162879      5.06869161124719
  N   3.49368349455230      2.09191850408364      3.63586286476906
  C   3.31060340049419      2.69003181155204      2.44599746165461
  Cl  3.23403730278418      4.45358163364276      2.52263875859343
  C   3.20857770596685      2.09454136029784      1.22784138016186
  C   3.30991943710329      0.66572566900082      1.15134908003203
  H   0.55836128555150     -0.25239339459211     -0.74024869128034
  H   0.96725701890970      1.36799745820513     -0.14029510435912
  H   0.66738546757659      0.05781622559731      1.00893440003955
  H   2.64697743252295     -0.23225981037092     -2.13423956287757
  H   4.23811998187651     -0.01960919706553     -1.36674801763399
  H   3.12955623102277      1.35491375084623     -1.51874970077502
  H   2.16517858370702     -2.07676035053423     -0.42880279329635
  H   3.85182256236771     -1.95916635673044      3.27509388497133
  H   5.49812202418669     -0.80439914985237      1.36191903754953
  H   3.05999024874230      2.70689987313591      0.34794750015084
