30
Coordinates from ORCA-job 23487opt
  C   0.90123904800135     -0.03379371213344      0.18048649915248
  C   2.38675335151566      0.19999408950344      0.03798671335157
  C   3.28934579815980     -0.87429394779493     -0.60706836929339
  C   4.35848232630063     -1.92080331064858     -0.31840292258913
  C   5.27731918422754     -1.61230319971380     -1.51110228094018
  C   4.96253691659405     -0.34719355892710     -2.15100802708381
  C   4.07089550898413      0.30227785124296     -1.14552532823203
  N   2.79498155070509      1.07715395349510     -1.10363602389412
  C   2.89790925563408      2.48839823528440     -0.82989344929946
  C   5.96144552402455      0.20680739850871     -3.01269198349538
  C   5.76492870866575      1.60303761915836     -3.51782012306733
  C   6.99942411756744     -0.62582624658373     -3.33853606179142
  Cl  8.21242578188627     -0.08185656096773     -4.51433441068134
  N   7.23862735592490     -1.87566387470312     -2.89151732766977
  C   6.38381160879611     -2.27593098240686     -1.92823620481125
  Cl  6.79529928669368     -3.81457317120199     -1.15896139655819
  H   0.69908570655419     -0.74340318867245      0.98594910644279
  H   0.49858594631244     -0.43261227475934     -0.75131803780740
  H   0.37639449304893      0.89727327406534      0.40950934085234
  H   2.81947315111334      0.57848601148255      0.97753258240829
  H   2.70988432153094     -1.23728530526991     -1.46020056643630
  H   4.00448039890089     -2.95201781027316     -0.31401969995662
  H   4.88977822994247     -1.74130687818136      0.62165186105906
  H   4.69607724283214      0.71949089213051     -0.31898889311192
  H   3.27998555176200      3.00435714716276     -1.71292772237127
  H   3.57418045496371      2.70247075420573      0.01595889366190
  H   1.91173619422544      2.89791490877581     -0.59644056248357
  H   5.65528343523400      2.29446006344768     -2.67515427225161
  H   4.83610784276391      1.66598477798342     -4.09602323336396
  H   6.59052170713419      1.94275704579070     -4.13826809973888
