26
Coordinates from ORCA-job 23495optt
  C   0.98269015903609      0.49457455090348      0.02725743426102
  C   2.47280743311318      0.35803841809687     -0.10119424048228
  C   3.07384380448247     -0.88049456804463     -0.42707603477254
  C   4.45318592730015     -0.97169507265862     -0.44511733046590
  Cl  5.14791075485969     -2.55751143644648     -0.74303981872707
  C   5.30318158539570      0.10172449897207     -0.21835534757251
  C   6.77840079789939     -0.13485626445147      0.02935584872263
  C   7.04051668731652     -0.93766823214308      1.23203870462652
  N   7.27695203900182     -1.55326773666672      2.17123875911751
  C   4.70280949191845      1.40474717693036     -0.06164128411314
  C   3.28382589193633      1.44857775050940      0.08247938791574
  O   2.67718712425860      2.62820077932593      0.39597109305781
  C   3.40831850191308      3.82515796643024      0.49480326153681
  N   2.75732890424413      4.86117476428049      0.86769606040687
  N   4.70791138190660      3.82087208342973      0.15893216906667
  C   5.31872520716139      2.66600065989991     -0.11101675703342
  N   6.67393911276119      2.80663266779302     -0.47696365564691
  H   0.49286017281882     -0.45531864993446     -0.18722800245617
  H   0.59385943406100      1.25061121212089     -0.65821004302113
  H   0.70039141049684      0.80974428169225      1.03415103379987
  H   2.46746198490542     -1.75155812317825     -0.63042999044938
  H   7.29310890612495      0.81226896172431      0.17658012022008
  H   7.25232831876619     -0.65787715639357     -0.80565014687268
  H   1.79125529036385      4.59320503778331      1.03318529790304
  H   6.85742475955954      3.79194629319065     -0.61831208282887
  H   6.90377491839849      2.27977013683434     -1.31145443619254
