27
Coordinates from ORCA-job 23491optt
  C   1.16138736317181      0.31103415539567     -0.26681483948146
  C   2.67160964738988      0.37555391384552     -0.12477913607401
  N   3.03772704236075      0.72422651138881      1.25093258939633
  C   4.43818320698678      0.73517248509636      1.49034752825931
  C   5.20085836127660     -0.45231842478860      1.56655347437815
  C   4.64938336090001     -1.76268625793328      1.60475239193185
  N   3.45384150797349     -2.20373543741915      1.69998565519141
  O   5.60427793587423     -2.82492290139906      1.51997540922429
  C   6.89266040048190     -2.52782010460721      1.57687721124919
  Cl  7.84488295302885     -3.99025861684752      1.51025465612292
  N   7.46830369911774     -1.41920996369481      1.67131339555229
  C   6.62878455965799     -0.28907215312131      1.69033884728858
  C   7.17881775522185      0.93320010585229      1.83104912126651
  C   8.62557903520290      1.23797451481840      1.98655889704361
  O   6.40764819949588      2.06244693674401      1.86469946653463
  C   5.03525389428338      2.00985346085635      1.63031339504350
  O   4.45439406669326      3.08985333662431      1.59293102767297
  H   0.87516627648311      0.05375603292462     -1.28789581282111
  H   0.70751446343835      1.27363958290729     -0.01916560439886
  H   0.75292527003699     -0.44063921867247      0.41029185148377
  H   3.09577833676549      1.09435435220438     -0.83966651869794
  H   3.10602805649722     -0.60026869575245     -0.34793634686786
  H   2.70030508761993      1.66039547263709      1.45476699038844
  H   2.83377104774510     -1.40177028614335      1.79639575527457
  H   9.20566924553736      0.31952843811886      1.96126529359728
  H   8.80243304548588      1.75355530613230      2.93450590441090
  H   8.96181618127321      1.90515745483295      1.18814939703071
