28
Coordinates from ORCA-job 23493optt
  C   1.73917306377207      0.76401851909645     -0.53774988998902
  N   3.06418787971743      0.18144784290813     -0.42914485079299
  C   3.93620462673856      0.91657030953155      0.41441264209957
  C   3.74332910596107      1.06472924413660      1.91631851426444
  C   2.80219932685845      0.11322615861222      2.64804835002279
  C   3.68014853481948     -1.12957852030549      2.85039310908087
  N   4.53547528311086     -1.17922492576023      1.65164390485251
  C   4.85066204331038      0.20037597048285      1.34899745777161
  C   3.93556192401632     -1.90547716062806      0.56713528615148
  C   3.17310558929589     -1.24114345454503     -0.40267953447101
  C   2.75968405845069     -1.95849909540482     -1.57214081292553
  N   2.36132300775742     -1.49900931705236     -2.70589167641198
  O   2.72029453123785     -3.33575308707630     -1.46717888212047
  C   3.33718097513949     -3.99010522429646     -0.42337159185460
  Cl  3.93031718156759     -5.58557128869360     -0.96250969861701
  C   4.08868755720728     -3.28166313450025      0.51091443963726
  H   1.81649737319437      1.76101985982873     -0.98362346098445
  H   1.23456487352254      0.87190019859389      0.43227257518440
  H   1.12042140019025      0.14340955434249     -1.18375195214788
  H   4.35205369802850      1.81075923350292     -0.04845130415175
  H   3.96827936605593      2.02859702057952      2.35343985216917
  H   1.93926394338696     -0.15166465654625      2.03628094459523
  H   2.44008708398295      0.54332879856244      3.58351648704877
  H   3.13033043663036     -2.06473945649782      2.94599647529809
  H   4.31464241420047     -0.99755703374521      3.73268841419148
  H   5.89338816076222      0.48698123110713      1.40645965023074
  H   2.49386319307640     -0.49152743036945     -2.69533890809510
  H   4.72607336800816     -3.80385015586356      1.20831445996337
