27
Coordinates from ORCA-job 23503optt
  C   2.84451691931206     -1.03895407018876     -1.21978482146731
  C   2.45601804265355     -0.13748644017020     -0.05104310273737
  C   0.94901702287186      0.09155883550344      0.01057667086449
  N   0.20655962069641     -1.15745197414074      0.20386800548775
  C   3.00549871300090     -0.68356984252491      1.27864543482898
  C   4.49905822431020     -0.57374816367124      1.37010743899452
  C   5.08201006806061      0.70952503655167      1.63903685655329
  C   4.29385321865481      1.85044412534986      1.86497143548155
  C   3.58674830210456      2.81788669853887      2.04407542897919
  C   6.51499934418833      0.83145378624626      1.70184513151367
  O   7.17270988415550      1.84473593970982      1.94183998223681
  N   7.19078732826740     -0.35095720143639      1.45649519808421
  N   6.69029786938889     -1.60027552153163      1.20448159030865
  C   5.37254957884606     -1.63077480098895      1.17359856662617
  Cl  4.75006872520733     -3.24280336160349      0.83178837688567
  H   2.44801973070808     -0.65654373889292     -2.16502135301050
  H   2.47863182554665     -2.05832130058022     -1.07064922785364
  H   3.92982741925155     -1.10642097651429     -1.30348018345153
  H   2.90618006737085      0.84727600884983     -0.20890205516348
  H   0.64037181123026      0.62751358522283     -0.89905628362681
  H   0.73247088524859      0.74389225047518      0.86028726599844
  H   0.35825051073350     -1.77991606801442     -0.58097089154086
  H   -0.78851819850072     -0.97848449201991      0.25192538618925
  H   2.67978734860560     -1.71512892573430      1.40546444750457
  H   2.56623003197222     -0.09798179554204      2.09182292047040
  H   2.99095877079855      3.67932877487164      2.21654358018830
  H   8.19409693531632     -0.29779636776497      1.50853420165559
