27
Coordinates from ORCA-job 23500optt
  Cl  1.05566018911220     -2.14441181969003      1.66654908300859
  C   2.83872823559198     -2.05547989739719      1.60180598728471
  N   3.40800913031779     -2.63453722058496      2.60539179654709
  S   5.08498433521550     -2.63026752050899      2.68736352536880
  C   5.63203254298227     -1.76137241447490      1.23755484884254
  C   4.62053572019380     -1.27897188100221      0.37439965581245
  N   3.28449013976847     -1.41220538313997      0.53835738845204
  N   6.92228511313912     -1.66710338473600      1.13643986684769
  C   7.43602698187419     -0.98910666981501     -0.02273013176564
  C   8.97972454704585     -0.96500122590671      0.02524512478690
  C   9.55893288160389     -2.34836754914994      0.32117806441720
  C   9.33462568320778     -3.26194787098445     -0.87463439305985
  C   9.97349149170008     -2.64071699123382     -2.09825579050873
  O   9.56135963068556     -1.29231292777743     -2.33631835580775
  C   9.48364101404391     -0.42129435843094     -1.28370156530401
  N   9.72284826204261      0.80614385435664     -1.45882950687940
  H   4.92643614755534     -0.73596314324321     -0.51200876665773
  H   7.09405799172274      0.05331345452833     -0.08851685450125
  H   7.10982278096705     -1.47449091254719     -0.95694822639836
  H   9.27784425947315     -0.26237646865153      0.80239499240337
  H   9.06827386163890     -2.73505360826332      1.21239066185718
  H   10.63323522481679     -2.26464407204280      0.51889388877504
  H   8.26524963557245     -3.41099652118610     -1.03532846425898
  H   9.78097253436247     -4.24591274906693     -0.71258926774934
  H   9.72155138679917     -3.17962316883945     -3.01100448334842
  H   11.06498323792512     -2.64485213504490     -1.98845478267526
  H   9.99919704064170      0.96355258483302     -2.42864429548889
