22
Coordinates from ORCA-job 23507opt
  Cl  1.16598748071993      0.20283928533132      0.23120537760968
  C   2.88264260066643      0.09193019611968      0.19741034202005
  C   3.49577539559265     -1.08998539946452      0.12802991420127
  N   4.87839660581973     -1.17897740329337      0.15313499275393
  C   5.67444850821680     -0.02577980022084     -0.10732680308503
  O   6.87356206243096     -0.19677827872774     -0.35795861785407
  C   5.01203985107865      1.22697945231719     -0.03416332694165
  C   5.69127736303351      2.45106116993381     -0.17038704872789
  C   5.04390664931135      3.67865287926688      0.01736317785985
  O   5.53617034179796      4.82119020185947     -0.08335266303555
  C   3.59936887729189      3.53664652983017      0.37769143375472
  N   2.96273394772540      2.42013068697574      0.43810969378701
  N   3.61572582432462      1.28228789610335      0.22226531829837
  C   2.82313240382345      4.77419185601768      0.65106012299776
  C   1.36505214274378      4.81377847944979      0.50025592182582
  O   1.95088009900876      4.78072573676622      1.78454466010449
  H   2.92314035739285     -2.00289489521481      0.08367284635624
  H   5.30986569776424     -2.02644993583614     -0.17999924386291
  H   6.74688328253984      2.41493124794586     -0.39720724188772
  H   3.40196494944867      5.67929235253158      0.52030762556516
  H   0.86461291120858      3.89690232686688      0.20595016144479
  H   0.87643264805963      5.74732541544164      0.23639335681567
