22
Coordinates from ORCA-job 23517optt
  Cl  1.04244225825251     -0.52264601015895      0.00098527378855
  C   2.78491193991152     -0.28207970192768      0.01120861189102
  N   3.13014664794723      0.97706918202117      0.00944296497727
  S   4.69758826119619      1.48551917324836      0.02059529674797
  C   5.62110428300737      0.02910798370498      0.02907729416972
  C   6.99467273255711     -0.16842093373233      0.03740400239731
  N   7.27880600324705     -1.50908131126612      0.03997827843475
  C   6.11652670136271     -2.16099494065225      0.03391936944173
  C   6.09622521608647     -3.66485665541564      0.03312187914309
  C   7.52712171983368     -4.20854546033885      0.02813704777709
  C   7.56036526236837     -5.66934298673324      0.02527903082862
  N   7.58027862174168     -6.81654440603143      0.02238416580041
  C   5.02039191444829     -1.26030417199867      0.02700178422021
  C   3.60967717287701     -1.40827248535869      0.01987033760907
  Cl  2.93337956026006     -2.99994225560666      0.02239516971865
  C   7.98484523508469      0.84528982345459      0.04349843270026
  C   8.78505638928939      1.74524940341381      0.04781921743532
  H   5.56021544862583     -4.04805471491170     -0.83781870042514
  H   5.56544880060186     -4.04980679237628      0.90663474217937
  H   8.07115421739597     -3.84069499097136      0.89793699546163
  H   8.06580289007499     -3.83770424532735     -0.84376173799168
  H   9.49583872382991      2.53405649696431      0.05289054369480
