23
Coordinates from ORCA-job 23510optt
  C   3.42263768337310     -1.19864486182346      3.54474914770720
  C   4.12649024578050     -0.82946988335980      2.32119337546757
  C   4.70823351739536     -0.50431175453323      1.32311133888557
  C   5.42648480932313     -0.08925897276453      0.11138071592175
  C   6.01813189022835      1.29449202128397      0.20506437205667
  C   5.34425263655471      2.45360324687309     -0.08430363810545
  Cl  3.65660162828942      2.26911322847373     -0.62287255471924
  N   5.73954983994454      3.71581985116582     -0.03034104801798
  C   6.99706872463109      3.94410096089592      0.39041506025790
  C   7.62662346538614      5.20370357173565      0.56299002968770
  N   7.04145577894048      6.43601923439617      0.22888736848344
  N   8.84774517181227      5.08869099002862      1.05196669665145
  C   9.07706639802710      3.73065382070225      1.21553686929598
  C   7.98945473982956      2.99629077675655      0.82737801746959
  S   7.67374821715449      1.28880963330567      0.77182961825218
  H   3.56393142910478     -0.43692640685076      4.31292238068361
  H   3.79081994409486     -2.14713802466941      3.93910562395562
  H   2.35134304376926     -1.29988896250098      3.36458959259973
  H   4.74260635613388     -0.14001277594503     -0.73720714193793
  H   6.22831081607577     -0.80874805870610     -0.08142678514567
  H   6.03385881657764      6.34889936153705      0.18849544396751
  H   7.31887212962848      7.16064605625086      0.87665500594364
  H   10.02071271794502      3.37655694774792      1.60288051063917
