23
Coordinates from ORCA-job 23523optt
  C   1.08266110378771     -1.04735265445111     -0.06503618912831
  C   2.59328924099178     -1.12980102560663     -0.16115879280997
  C   3.14442447221849     -0.27594561121366     -1.29123192540275
  O   3.09566861983484     -0.69969406339951      1.10741444754739
  C   4.41445374213946     -1.01219200984262      1.35705601940630
  C   5.47456997615370     -0.12645498026987      1.02881873748493
  Cl  5.14356946574897      1.58168612055966      0.92090291634517
  C   6.80431295206760     -0.51948359034490      0.86435331264840
  O   7.81255529420794      0.12710655636726      0.64302136700589
  O   7.02451401815699     -1.94427636072191      0.95086009064598
  C   6.07063778445568     -2.76521532414112      1.44587751709238
  N   6.58671122730542     -4.02961523309806      1.73812049218401
  C   4.79137957840411     -2.35786985388282      1.60317604185820
  Cl  3.60756185119356     -3.50008399062914      2.21431306381399
  H   0.61821030318444     -1.37303789515943     -0.99792571963639
  H   0.78537583301382     -0.01528418203202      0.13242234852639
  H   0.72335159428259     -1.67406550848038      0.75149402276516
  H   2.89340500300880     -2.17453224216382     -0.31097289516630
  H   2.86499388144568      0.76748796895758     -1.13375186811300
  H   2.74373457272336     -0.61465996100751     -2.25003192880664
  H   4.23235169027044     -0.33251413055773     -1.32447353524889
  H   7.52540974252068     -3.96017716605355      2.11150124467170
  H   5.97885805288384     -4.55702486282870      2.34925123231636
