29
Coordinates from ORCA-job 23528optt
  C   1.01134179337796      0.38344290268871      0.25958893151942
  C   2.46038153240448     -0.02521058107236      0.02468560090713
  C   2.56829996419997     -1.52885373612402     -0.22437647305202
  N   2.96192486155520      0.71235257949417     -1.11697273224812
  C   4.22458396658963      0.87229573114809     -1.20559591590377
  N   5.15316249550818      0.41533741321557     -0.33634226119806
  C   6.42749966307924      0.46075265243848     -0.69753923851650
  Cl  7.57550384179798     -0.20241645264101      0.46322541426776
  C   6.91164823217118      0.90871956087007     -1.90601494964603
  C   6.02374391774084      1.46683323341169     -2.81529031590946
  C   6.51614396435397      2.27897434868433     -3.96713792156294
  C   5.47742824816754      2.36290266525435     -5.05945281628770
  O   4.30829235918842      2.93639727407728     -4.46313979368396
  S   3.48304569862503      1.99439503459800     -3.47893557393391
  O   2.48608383413983      2.85464711321761     -2.95670210876629
  O   3.13310399166888      0.82282611151390     -4.21996811775462
  N   4.67216218659292      1.66748507227815     -2.35382212887294
  H   0.58976654900176     -0.13964446862405      1.12205949580574
  H   0.41454151382825      0.14612144093138     -0.62385677227084
  H   0.94253062913963      1.45868317363638      0.42856286012344
  H   3.05340506709020      0.21204867530685      0.91600332899848
  H   2.01305381463424     -1.79129002439986     -1.12801454452028
  H   2.15880820964396     -2.09512278159595      0.61683417159279
  H   3.61360443361821     -1.80621875103965     -0.36011382709216
  H   7.96353505973456      0.85806105127787     -2.14537799312055
  H   7.43755066978382      1.83028217256445     -4.34265207531056
  H   6.74840520583564      3.31057868350132     -3.65801829329280
  H   5.22972139450861      1.38269547867526     -5.47186864212623
  H   5.75772690201973      3.04292442671294     -5.86276730814499
