24
Coordinates from ORCA-job 23524optt
  Cl  0.97658492813365      0.23982109687817      0.65839960628023
  C   2.71498303987335      0.20175852207701      0.36441219542983
  N   3.24042891942233      1.39462238374378      0.28529373872060
  C   4.58818700860919      1.41400523900910      0.18294908665196
  N   5.38519373314503      0.39965908996066      0.07896128819572
  C   4.83718788951909     -0.86935616105991      0.04373419709517
  C   5.68898781343723     -1.85066697001078     -0.42137151215875
  C   5.51976370818152     -3.25818847602410     -0.69062218836808
  N   6.05938895749376     -3.77839243773008     -1.73840969324314
  C   4.93329662474701     -4.16125167710201      0.37754611652819
  N   5.39488958116148     -5.30875878969032      0.66052118560893
  S   3.65385427745500     -3.54473822052905      1.42101888749801
  C   2.83555156760648     -2.30756085339492      0.49019515238372
  C   1.46234756766179     -2.69912808101106      0.04241611991488
  C   0.40110930474979     -2.85422471880400      1.10700356416555
  O   0.58102403550271     -2.84721031492024      2.29102098110235
  C   3.40687176647448     -1.02795234007774      0.32690898891108
  H   5.03770644375025      2.40311063254646      0.19204927474715
  H   6.62674675647090     -1.46163560291743     -0.79879134167950
  H   5.91892609231549     -4.78881967114571     -1.74603279101195
  H   6.20801022418403     -5.51001263626013      0.07630902363534
  H   1.51158443423979     -3.68863514764022     -0.43713859712531
  H   1.06717375030568     -2.02277706539960     -0.71747977450385
  H   -0.61979842444010     -3.02166780049783      0.69910649122186
