27
Coordinates from ORCA-job 23534optt
  C   2.19546881139023     -1.62287270818875      0.14300391550831
  C   2.54271520370082     -0.14412560425245      0.08244406116073
  N   3.13167009167674      0.33875677595121      1.33064808966956
  C   2.27424552928395      0.68586161774585      2.39363847736276
  N   1.02003034687614      0.45961972977552      2.26611205126183
  C   0.10936364572842      0.77922973297648      3.21184004251011
  C   -1.23823569684790      0.45351795733765      3.08151739093544
  Cl  -1.69015675395648     -0.43493814882891      1.61632013069743
  N   -2.22610208360015      0.70444809803154      3.89256816636627
  C   -2.09040198294223      1.36964398383326      5.04748922516526
  C   -0.91124753426631      1.89701346251488      5.61457947430747
  O   -0.79055011074018      2.51078183556581      6.66684882944235
  S   0.62731149565131      1.62776829337075      4.67224857579733
  C   4.48559174468765      0.35020030481406      1.43341422346567
  O   5.25657224337343     -0.01010222217806      0.56735027091876
  O   4.91041682608969      0.82049759192768      2.62722665655130
  C   6.32038425623640      0.86363201975499      2.77415785135490
  H   1.78117980444742     -1.94724441600240     -0.81318716956049
  H   1.45038955742508     -1.79692160626415      0.91841398759239
  H   3.08811136544523     -2.21462862714998      0.35051799790206
  H   1.64099363891444      0.44220423167253     -0.08555976747411
  H   3.26502224784497      0.05457962545545     -0.70601541770588
  H   2.76334640538077      1.12056637450261      3.25670340557404
  H   -2.99118804782653      1.52786771164849      5.63047488076594
  H   6.49954670190945      1.23260761529640      3.78038929025942
  H   6.76315754468492      1.53449612659776      2.03835024073896
  H   6.75236474943268     -0.12845975590822      2.64750511943213
