29
Coordinates from ORCA-job 23536optt
  C   0.92381151987459      0.20332173258125      0.30912312744588
  C   2.36321506902565      0.02438292331432     -0.05622005761013
  C   3.23815324483308      1.15919358937007     -0.24245597050144
  Cl  2.53458101361477      2.77083418561958     -0.31858038229023
  C   4.60978752193118      1.00957338467566     -0.37081683860652
  N   5.45455962074952      2.12541118684814     -0.43071634572405
  N   5.23297036820067     -0.17393183806328     -0.39280502593349
  C   4.39623347499985     -1.26509988646630     -0.38162752327418
  C   3.00022947354999     -1.19688120392866     -0.15100278032634
  C   2.38762680612761     -2.58378322353226      0.14201136586629
  C   3.50836526847146     -3.41194470528343     -0.46595494733340
  C   4.41807460349153     -4.64711620048985     -0.36327423389480
  C   4.32543037675562     -5.75252164243716     -1.38167798504010
  O   5.54150839174596     -6.48114245990172     -1.42681735788224
  O   5.54846714363251     -3.78843778090910     -0.67787368643590
  C   4.75046664635300     -2.66658465400933     -0.06437919469713
  H   0.36426844890004      0.74279614649807     -0.46321461745554
  H   0.80679777186858      0.78682926727777      1.23123266537305
  H   0.44220636026108     -0.76349181689621      0.46008977781188
  H   5.02671452285592      2.94746092293792     -0.82882312326198
  H   6.32796517903293      1.87539294718358     -0.87101976421528
  H   1.40715010502930     -2.73296014732098     -0.31318638121993
  H   2.29534056970447     -2.73096589055430      1.22354989353125
  H   3.43820796909203     -3.25665815334262     -1.54594949217802
  H   4.52941337565245     -5.05527328722985      0.64870027277060
  H   4.10285992579822     -5.31706737075295     -2.36220657004967
  H   3.53354768277713     -6.45768229711552     -1.12094096730187
  H   6.24169541517559     -5.81565373024963     -1.42714674388978
  H   4.99335213049518     -2.77199999782318      1.00898288632308
