29
Coordinates from ORCA-job 23544opt
  C   1.95950510219640      1.15198181348164     -0.24448291405415
  C   3.43734994356724      0.91819687895392     -0.37090607861264
  C   3.94392258849363     -0.20376340278699     -0.93789306651241
  C   5.41680890501780     -0.26297309538341     -1.06166454807920
  O   6.08621697598125     -1.18688049013138     -0.26981163561399
  C   6.03523507361184      0.81632181899452     -1.56578851125781
  N   7.24864538152594      1.36277198516024     -1.20330808528619
  C   7.20838147405793      2.60196146194520     -0.79514616780360
  N   8.49887279156967      3.16206618158665     -0.61195957675160
  C   8.67209232558402      4.53014056288317     -0.58886767046148
  Cl  10.34019901295096      5.03399479268102     -0.68087008741707
  N   7.73389345530349      5.39059206889669     -0.45161045184056
  C   6.47221931821893      4.90147069309994     -0.37597415465107
  C   6.12567662306382      3.52771410304124     -0.51742601007044
  C   4.73566852636278      3.09910547818132     -0.45743359029540
  C   3.70774346498853      3.86170376863805     -1.26496251419801
  C   4.42392351502799      1.91201046421955      0.12784219269841
  H   1.66115341319470      2.03858876047271     -0.80953420155794
  H   1.69027310557245      1.34019378135736      0.79728759718858
  H   1.38820225548069      0.29879948262198     -0.61538662151746
  H   3.29945883001891     -1.03972603880307     -1.20970421421168
  H   5.49282551477799     -1.44070725858140      0.44328196898221
  H   5.39673786422692      1.42813349816584     -2.20100172283505
  H   9.24235261784712      2.58352392987536     -0.97328633062978
  H   5.69551524426291      5.63480730041060     -0.19859444829297
  H   2.83609199258308      4.14537495166129     -0.66926190339464
  H   4.13779336564160      4.76315134520366     -1.69887284506035
  H   3.34991131478162      3.23521033817352     -2.09170873817177
  H   5.23633000408958      1.45823482598065      0.68604432970812
