22
Coordinates from ORCA-job 23549optt
  C   1.11683582580736      0.01797053851664      0.14686169649737
  C   2.60070726140379      0.06151042760977     -0.01186681920440
  C   3.42772419827644     -0.98677272695730     -0.03158591315329
  C   4.86660459975232     -0.55684527636617     -0.19817008966806
  C   5.52404355357380     -1.24580424796942     -1.32083639341923
  C   6.03355405829756     -1.84247368572812     -2.22702750245647
  N   4.74047578979201      0.88022818554884     -0.39633560231330
  C   3.40415020364829      1.26872101426103     -0.18685560998227
  C   3.14918624027746      2.57880599807928     -0.15040823852530
  Cl  1.56683577917803      3.25770059907007      0.09360898940612
  O   4.10905414266032      3.49668029791630     -0.30371682731725
  C   5.44329365803166      3.12000073937770      0.18069600261562
  O   6.16095810995603      4.05121061270378      0.53549214225175
  C   5.75747906857436      1.73795384957739      0.11483260307729
  N   6.89260086659626      1.18634569756896      0.47179379741610
  H   0.77846585149202     -1.01612455745673      0.21239389421219
  H   0.62058665589256      0.50247626839269     -0.69508185949788
  H   0.80449854367987      0.55017106289251      1.04653263061075
  H   3.13898577897986     -2.02559254222273      0.04632042900358
  H   5.47126355004317     -0.74855272741339      0.69820221443009
  H   6.50776173524529     -2.34302326508220     -3.03514774439313
  H   7.50593452884148      1.93741373768107      0.77929820040974
