31
Coordinates from ORCA-job 23557optt
  C   2.84982679279185     -2.00253330925744     -0.39927163426090
  C   3.74515120870987     -0.86143104792856      0.06692261829069
  C   3.90265728262912      0.23406835583772     -0.97372242216256
  C   2.59557127814300      0.94461696668044     -1.28688457628266
  O   4.86565697106158      1.14885734389956     -0.42794047015610
  C   5.28138229663962      2.12691200414616     -1.29441986501370
  C   4.86461952618218      3.42414459183453     -1.10693526200774
  Cl  3.85910133692592      3.82283047268777      0.26234259838176
  C   5.18708065884501      4.44249204679485     -2.01036986759595
  N   5.87596170846572      4.16077533673334     -3.13019709543352
  C   6.30023506984471      2.93379618797438     -3.32116903235901
  C   6.11695566344166      1.82985474568468     -2.42602287842824
  C   6.74553273084007      0.58142022775238     -2.65148232573420
  C   6.91692088897448     -0.52915602494637     -1.80572972617924
  C   7.63372554086337     -1.58383328139116     -2.39476435051630
  C   8.03446866104962     -1.34135412085751     -3.68201005871003
  S   7.51879725709672      0.23119782240532     -4.19884308518639
  H   2.83160605429923     -2.81017596531721      0.33394646358193
  H   3.21543208765602     -2.41494806687456     -1.34249286742418
  H   1.82144025205982     -1.67189670694400     -0.55287879863268
  H   4.73987855393181     -1.24496185577259      0.30105572274758
  H   3.35072921228567     -0.41031490435003      0.98260174450715
  H   4.31495960656931     -0.19739362786150     -1.89281413135385
  H   2.12978664641384      1.30607966021258     -0.36779272638878
  H   1.90792785499474      0.26740503591557     -1.79624679168566
  H   2.77462142532470      1.79867983838155     -1.94090978983300
  H   4.86655571972424      5.46055316640795     -1.83722237414174
  H   6.86029482251719      2.76553291633401     -4.23647165589180
  H   6.57598862811424     -0.52727213428604     -0.78280797320596
  H   7.86797446707715     -2.50344554556898     -1.87298873835608
  H   8.60815979652745     -1.97250012832687     -4.33948065056884
