22
Coordinates from ORCA-job 23554optt
  Cl  1.23744419546159     -0.21359683419726     -0.20287013121177
  C   2.97261665581048     -0.08486652643544     -0.15498689597797
  C   3.58448860441842      1.09579123086671      0.26917176278027
  Cl  2.64728076552178      2.47904902440481      0.76950701705585
  N   4.91040511385595      1.22685968010611      0.31854082949899
  C   5.63152838831213      0.20041859690379     -0.04519636943187
  C   7.13140080413548      0.11158831870607     -0.11089477325015
  C   7.76978733617169      0.96369355465537     -1.21072239115402
  C   9.21423751172254      0.50928244923738     -1.35820107036881
  C   9.36945740241455     -0.98342012383483     -1.58867809643604
  O   10.35689355268463     -1.44346139738140     -2.11120424342510
  O   8.39590927782231     -1.79207914454525     -1.18207319187883
  C   7.25751425638288     -1.35406695234365     -0.48440867104911
  N   6.08759322560452     -1.92748875688063     -0.84890150134954
  C   5.12466038091173     -1.05237760618318     -0.51642961352246
  C   3.72346738823820     -1.17814462306764     -0.55123401066786
  H   7.60306785401556      0.36471776778903      0.84526173255612
  H   7.70965935973693      2.02570642668481     -0.96667859824301
  H   7.22414611580623      0.80436617799162     -2.14454427073630
  H   9.77055308226125      0.73862244664092     -0.44358187936248
  H   9.73724509176555      1.00022402988825     -2.17755782892436
  H   3.23864363694551     -2.08581773900560     -0.88231780490156
