27
Coordinates from ORCA-job 23551opt
  C   1.15946899014011      0.48887459074691      0.45126643992264
  C   2.63998133358575      0.24027300518139      0.41738722096558
  N   3.40551253898889      1.32457427302590      0.55137621541387
  C   4.69481676103902      1.21866684219227      0.38860809084422
  Cl  5.67023958889952      2.66451094345209      0.64605183940466
  C   5.37071070991803      0.01547737788521      0.05017785666673
  C   4.59346764682349     -1.11548774666390     -0.08665144527293
  N   5.22678182285609     -2.34467425156084     -0.35823268642680
  C   3.18791715239476     -1.06822347694672      0.08347349202643
  C   2.42749482958017     -2.32986266866558      0.38948432392024
  N   1.97498673316415     -2.47135082033786      1.79530781764261
  C   1.16677209201790     -2.56156069020221     -0.50634193844109
  N   1.35597668775806     -2.32412722099063     -1.93474869942121
  C   0.69034301453278     -3.94182000511299     -0.32612878162637
  N   0.36282408927792     -5.03624628503129     -0.21983008402204
  H   0.98971456076692      1.52590847248489      0.73604046771187
  H   0.60817257319602     -0.15183491038656      1.14934975053291
  H   0.69939483454262      0.32601414637651     -0.53707243990404
  H   6.43402065344210      0.00393786166597     -0.14581172668980
  H   6.18729430123843     -2.21646883349275     -0.64308464855200
  H   4.72657715759565     -2.89700028479541     -1.04647043648537
  H   3.08430774896803     -3.17941698084069      0.19616747452618
  H   1.76846349658230     -1.54643504663739      2.15904581511220
  H   2.75707623813091     -2.80395253792319      2.34780001127843
  H   0.36920256733873     -1.90866864805758     -0.15070228204729
  H   1.98747195664564     -3.03354219224503     -2.30196825526894
  H   1.87700992057592     -1.44956491312050     -2.00549339181071
