25
Coordinates from ORCA-job 23569optt
  C   1.25162097557861     -0.09564306646366     -0.21056149668669
  C   2.69910051912209     -0.10786521688058     -0.03904971365243
  C   3.89901836860963     -0.12571359639501      0.08652807220552
  C   5.30675929074517     -0.08387973792263      0.23107335780810
  C   5.97635628516634      1.14571869608308      0.46548315272190
  C   5.91216578763483      2.54660850399235     -0.08670797157606
  O   5.22771883323404      3.52436171243721      0.67326942060343
  C   7.47178988772572      2.54075710478992      0.00945490866302
  N   7.39080855249501      1.15202201721924      0.44443044135334
  C   8.21978985717026      0.08823860704822      0.19659435427897
  O   9.42606821377764      0.26380874733347     -0.01094865507034
  C   7.53799116056998     -1.19151971208601      0.20149954125903
  C   8.37714563380968     -2.42704624834714      0.09021349138001
  C   6.14070443016444     -1.20489659995517      0.17367716483777
  Cl  5.36587127290495     -2.77635111949611      0.05079482114124
  H   0.87114339364247     -1.10998893615956     -0.34633279279221
  H   0.95772002355169      0.48948945899557     -1.08559085694197
  H   0.74925774046281      0.33378504282411      0.65918405726012
  H   5.54280516759870      2.63500384301652     -1.11294171859293
  H   5.11315854921506      3.12612965953354      1.54613568653298
  H   7.86123165546993      3.22292669767440      0.76742442027527
  H   8.02145103867808      2.65968897018842     -0.92470991248132
  H   9.42477310619381     -2.13716060703896      0.15666529320438
  H   8.22818898171703     -2.94873697320842     -0.86164323105753
  H   8.15436127476181     -3.14773724718280      0.88205816532639
