28
Coordinates from ORCA-job 2356optt
  Br  8.01749103463658     -0.64033959910787     -4.26783410783500
  C   7.11711938029047     -1.03087614382455     -2.55930014658222
  C   5.70954960900333     -0.97112936399806     -2.48245980732637
  C   4.89863724963102     -1.60673141646614     -3.51763751557110
  C   3.66259816318397     -1.14631131752152     -3.92813809309660
  C   2.96901297849768      0.09760973094953     -3.48566676462368
  C   2.55101816449352      0.07226179251171     -2.00834367534578
  C   3.58534224225177     -0.62594407674957     -1.11323410562932
  C   5.03589654577042     -0.30163565097492     -1.39894080970791
  C   5.68426187883585      0.54331144486475     -0.54902991481053
  N   7.05355215663751      0.82701644258640     -0.70503981101688
  S   7.96527971976689     -0.52767388407851     -1.16722162792752
  O   9.29305356510674     -0.02966424941811     -1.41453620465936
  O   7.81350809874353     -1.51297088434812     -0.12199783954835
  N   3.20283899492594     -1.98523629624909     -4.90919625177278
  C   4.13221752978878     -2.96700818484418     -5.15166376180123
  C   5.19168689231261     -2.75769520710378     -4.31095844141439
  H   2.10439148041297      0.30369036863153     -4.12343714223934
  H   3.67189619280264      0.92509278165157     -3.62186843117468
  H   1.59134781342131     -0.44326045962691     -1.89880257000185
  H   2.40203900275681      1.10234140073635     -1.67160209197147
  H   3.45731850296505     -1.70530867272790     -1.22287271414957
  H   3.36377750562104     -0.38695315999731     -0.07039561657660
  H   5.18443160262644      1.00170944117730      0.29389504401879
  H   7.48914842479109      1.30733097167555      0.07260698223246
  H   2.33771355124187     -1.86700954028276     -5.40370280287878
  H   3.95794612749956     -3.72350875854515     -5.89833710561407
  H   6.09392559198449     -3.34410750892020     -4.25228467297579
