22
Coordinates from ORCA-job 23564optt
  C   0.90974792494054      0.02718074100245      0.02604014951031
  C   2.40141976553483      0.05935041521304     -0.00990804335882
  N   3.09978683364333     -1.10433084214557     -0.02897501310607
  C   4.38985684203903     -1.13378379257430     -0.08184585911015
  Cl  5.03887270044379     -2.79267506600118     -0.11802532219011
  C   5.30482705120215     -0.01568065294704     -0.12807879138705
  C   6.72597000793126      0.09923201303346     -0.16772923813916
  N   7.55882531761390     -1.02098223275138     -0.09115457850153
  O   7.28962233550095      1.22029855458736     -0.22948443545863
  C   4.53826243637885      1.19264156427182     -0.12580908929873
  C   3.17565173941991      1.21662475250276     -0.07082938713031
  O   2.74721658471818      2.53436826946430     -0.07689740523708
  C   3.86240327119177      3.34012701592227     -0.13055438877872
  N   3.85070894080101      4.61393216279024     -0.14716012596553
  N   4.94473312147196      2.51629227637110     -0.16194986224486
  H   0.48487279785021     -0.33044282127153     -0.91883025987850
  H   0.51237469296763      1.02533658967374      0.21472785534881
  H   0.55424307991210     -0.64229726104415      0.81317385537612
  H   7.18223350041678     -1.90415636853848     -0.39104160312143
  H   8.47633007694454     -0.80236013553036     -0.44814917868367
  H   2.89195358885428      4.94289363202776     -0.11154392532896
  H   5.92008739022288      2.77343118594367     -0.20097535331596
