33
Coordinates from ORCA-job 23576opt
  C   1.26733273745659      0.37220802097724      0.19039279980037
  C   2.68381350732685     -0.06124791662610     -0.22102383128256
  C   2.82899492665934     -0.05391623453286     -1.74639902019655
  C   1.90069500755038     -0.98874893042860     -2.51786193623736
  C   2.47698077113264     -2.38148529105212     -2.76893705914861
  C   1.40098300796112     -3.26526104740747     -3.38153528401213
  N   3.61161750842801     -2.22705094058207     -3.71442187703181
  C   4.67290987549177     -2.49316528359707     -3.06284202343016
  N   4.54346154736038     -2.99923601160049     -1.79936060629846
  C   3.08022777829871     -3.07319585727700     -1.50131288632561
  C   2.74415836109968     -2.67231419136573     -0.09444410148231
  C   3.02652055299652     -1.35815702149964      0.48495350492496
  C   3.37386910001358     -1.35243335706923      1.81923092420987
  Cl  3.71410833719313      0.22840581422036      2.61173182802617
  N   3.46738875810690     -2.35523661577894      2.68304817947691
  C   3.09320006608121     -3.56288326539221      2.15695009863843
  C   2.76471148717834     -3.74731198011487      0.84700743701874
  H   0.93920084966187      1.24970014663901     -0.37692430228778
  H   1.24730513830827      0.61639157167316      1.25246777292529
  H   0.55406606437494     -0.43671001493849      0.02231247058265
  H   3.36982514931831      0.70446936036380      0.14362041081955
  H   3.86595296555145     -0.26569081962797     -2.02063959576244
  H   2.63875355898024      0.97389155191589     -2.07100395490390
  H   1.68458754084799     -0.56634561401719     -3.50323264988692
  H   0.94735663349906     -1.09408016540367     -1.99451380092348
  H   0.95404325764509     -2.78134073822381     -4.25222518604205
  H   0.62073218944826     -3.45425399559628     -2.63878249751996
  H   1.82400788617867     -4.22061088612165     -3.69664431820898
  H   5.66582189628480     -2.36193210142853     -3.48758916532129
  H   5.15497698066148     -2.69136214514390     -1.05624802408891
  H   2.81576649946771     -4.13327111000593     -1.57360133857746
  H   3.07850922445009     -4.39606059836408      2.85269093605226
  H   2.53012083498642     -4.75176433259341      0.50513709649362
