29
Coordinates from ORCA-job 23579optt
  C   3.66574930671591      0.44167360043313      1.43637495557283
  C   2.67695242074373      0.14293939262526      0.31361906382954
  O   2.50933618301539      1.29327647361690     -0.49647441701460
  C   1.23968488806522      1.86862628664828     -0.48671676052979
  N   1.10345751731712      3.16950382927651     -0.28666176266060
  C   0.11892534721521      1.04333468951951     -0.78054148029964
  O   -1.07711562039031      1.72538215318883     -0.75568303628046
  O   0.11952412697365     -0.17714148454596     -1.02504477043472
  C   3.08606838717739     -1.05570273711532     -0.52499781517109
  C   4.13500565983220     -1.02628274782857     -1.44995003520855
  Cl  5.12966807841754      0.39931366745417     -1.63211385553909
  N   4.47561759946961     -2.02341921245196     -2.23339374363488
  C   3.75846396245697     -3.13653559638260     -2.16176812603061
  C   2.70547515130592     -3.30796290496850     -1.27768974763346
  N   2.00058340552402     -4.52721232715233     -1.24333008360214
  C   2.38969210115313     -2.26075369592218     -0.40441856173560
  C   1.29086888286960     -2.44857456704516      0.60287422733342
  H   3.29452938908610      1.28820676323055      2.01570108814254
  H   4.64761126186149      0.69152110302725      1.03791938991019
  H   3.76243818077579     -0.42452815421078      2.09610677502794
  H   1.71237995476622     -0.08972333964795      0.75599308217432
  H   2.01302322347382      3.57754456648769     -0.09535435812229
  H   -0.82329054296374      2.64648848801769     -0.56886956004338
  H   4.03578366334927     -3.93862638805013     -2.84120586325576
  H   2.15489890009578     -5.07440329407396     -2.07826317459436
  H   1.00781720729697     -4.39813433663226     -1.10482617985405
  H   1.10953265238888     -3.50665697699735      0.78698206624382
  H   0.38351757777311     -1.95633036308260      0.23902645949108
  H   1.55280113423391     -1.99582288741813      1.55870622391945
