26
Coordinates from ORCA-job 2357optt
  Br  7.65951544192763     -3.85961674773297     -2.44156857282766
  C   6.80264153566741     -2.81971388453115     -1.04092180711081
  C   5.40212434315856     -2.57973314042080     -1.08416103569370
  C   4.52336458108102     -3.65443855490639     -1.55160311101133
  C   3.31759391536489     -3.60421180314062     -2.19109257874046
  C   2.44142129963979     -2.50346034697069     -2.67052750269401
  C   2.97947319163333     -1.12480402403743     -2.29954613666208
  C   3.39245880777325     -1.03685824597655     -0.82487322164689
  C   4.84674132156411     -1.36595509166153     -0.58404109505924
  N   5.48274695381857     -0.45431250969480      0.10677052634985
  N   6.78485144460933     -0.80354057997952      0.47229643578212
  S   7.78652465373712     -1.44368374066152     -0.69847454000041
  O   7.89451075460939     -0.54719738457659     -1.82595258319285
  O   9.02247536433351     -1.77362608355421     -0.03581384238929
  O   2.83951324888674     -4.86526253344215     -2.41113130674433
  C   3.75717754768368     -5.73114136970992     -1.91411681410839
  C   4.79662672135446     -5.06346552127446     -1.38131848585141
  H   1.44744088551690     -2.63761600208795     -2.22716073093917
  H   2.30702665345791     -2.58453267345384     -3.75424400227071
  H   2.20695512435196     -0.38424334906423     -2.51903357673699
  H   3.84323951050774     -0.88184151777141     -2.92204464982842
  H   2.76254014028975     -1.71205487984072     -0.23392152829100
  H   3.24025974458251     -0.02974411877262     -0.43928229357163
  H   7.25118916039900     -0.01300626843303      0.90264165190344
  H   3.52781206138638     -6.77738224950221     -2.01967265487201
  H   5.67377559266494     -5.48055737880265     -0.91720654379257
