35
Coordinates from ORCA-job 23585opt
  C   2.12327453845373      0.27893595265912      0.71034339090531
  C   3.53749109015324     -0.08875458434580      0.23794972972212
  C   3.66524943833981     -0.14949600603678     -1.25077984145735
  C   3.82677993279764      1.00348698053227     -2.06896868438105
  Cl  3.97705963219323      2.58067557660610     -1.33566525516728
  C   3.86804232184234      0.95063850904644     -3.46576156289494
  O   3.95061943257951      1.85951305493511     -4.30166897399102
  N   3.81325212740641     -0.39734309178237     -3.97719263845500
  C   3.45966579461428     -1.44360518531748     -3.12701559938758
  N   3.19454151406174     -2.64314657402018     -3.81137441419280
  C   3.04077404628974     -3.84064862998436     -3.00481189990253
  C   2.61678037635703     -5.02895114586218     -3.90010832934685
  C   3.49555248410239     -6.20475559717168     -3.46843001572440
  C   4.81458609662719     -5.53328316128780     -3.08082823843551
  C   5.78337501186360     -6.42743229041712     -2.32611329323071
  C   4.33053770081838     -4.31569934977016     -2.29015462755602
  N   3.44277662257865     -1.36349713000593     -1.84013513378389
  H   2.05325829627776      0.29069040274691      1.80302403123518
  H   1.40264792649599     -0.44505395196699      0.32521420927099
  H   1.84697451241884      1.26602495281051      0.33639206717809
  H   3.80166235725486     -1.07232927442981      0.63476922478045
  H   4.24342658930998      0.63715980355665      0.65045074239863
  H   3.40842695628735     -0.41454987575233     -4.90491012594077
  H   3.86441262905224     -2.77978864415095     -4.56600076211282
  H   2.27978020280442     -3.60866121659119     -2.26218865488376
  H   2.82895739673664     -4.77588080716115     -4.94244536749945
  H   1.54905433924096     -5.23706469233774     -3.83380531762185
  H   3.60794130135764     -6.96805645051672     -4.24150025508469
  H   3.07644090230798     -6.69085734821353     -2.58015678729631
  H   5.29605699784777     -5.18286316433252     -4.00240101529417
  H   5.31927154191815     -6.79411779050738     -1.40646939187158
  H   6.68716890069395     -5.88255769447351     -2.04680393705300
  H   6.08093244330997     -7.29370425801785     -2.92211080767081
  H   5.05715448146219     -3.50747414580548     -2.21672713025235
  H   4.09407406414420     -4.62755317263394     -1.26761533500215
