33
Coordinates from ORCA-job 23584opt
  C   3.51867131902079     -0.27259644852853     -0.99192457192420
  C   2.38754077484033     -0.00934044692265      0.00894556935408
  N   1.51977068501892     -1.18704124655977      0.15802422113250
  C   0.45333888087762     -0.94173603983376      1.11016842301041
  C   0.97019337100116     -1.59731197807928     -1.11277722695741
  C   2.90048594536784      0.45988601287446      1.35997140308048
  C   2.66095297777832      1.72301710724506      1.75244474116308
  N   2.14589656372057      2.73641318397351      0.90615940916789
  C   2.99720663701582      3.16315303631390     -0.17050081319761
  C   2.66009297147932      4.53361138943021     -0.66730973810017
  O   1.83450731104725      5.26016916014048     -0.18474670064133
  S   3.02915947056591      2.28297081451273      3.38831094473774
  C   2.90161283565193      0.77061888926571      4.24787142634213
  C   3.35609932732124     -0.37218815474567      3.62335863009872
  Cl  3.73187047991087     -1.76634729782889      4.67799315952921
  C   3.60277239102856     -0.53394736636532      2.23579264177915
  N   4.30407680899951     -1.47608378957486      1.64213224702967
  H   3.15665158202150     -0.25250003693017     -2.02275511620168
  H   3.98103362106352     -1.23048098864688     -0.76278428922965
  H   4.28722327610192      0.49400024212737     -0.88380213828997
  H   1.75617223802508      0.80648573774400     -0.38621116634509
  H   0.86509188595452     -0.75124227676535      2.10045517182943
  H   -0.18433104446291     -1.82566330579609      1.16492024697031
  H   -0.17300514388856     -0.07723927218085      0.82107590947129
  H   1.75618725987963     -1.94154232333582     -1.78340494733211
  H   0.41499470998100     -0.78149547340607     -1.61796814030126
  H   0.27728650199830     -2.42571962937706     -0.95635211890077
  H   1.77993685051168      3.52833568054780      1.41932723273873
  H   2.93889760615068      2.48816612914149     -1.03520599488709
  H   4.06617934878156      3.18210417144142      0.10452844080948
  H   3.25261718929094      4.85923621463400     -1.54561803366381
  H   2.41988152180435      0.78239441958822      5.21448056593988
  H   4.68693384614071     -2.09408611410336      2.35440061178793
