25
Coordinates from ORCA-job 23597optt
  Cl  1.05813993513401     -0.19190805329501     -0.23349481051864
  C   2.82994534473947     -0.22903800841482     -0.20297031976944
  C   3.47751477615581      0.80772597445539     -0.81028096050578
  C   4.89912741064032      0.85750364558742     -0.80238108570330
  C   5.58188486134487     -0.24481182431182     -0.23807073407150
  C   4.92088086326531     -1.28156149866859      0.36955704612141
  C   3.47732087261906     -1.28969702422043      0.50346695276935
  C   2.76318557834516     -2.55568119246222      0.88040521062326
  C   2.83391159900519     -3.65419666607139     -0.20512413310677
  C   4.20792071732958     -4.23655275980245     -0.30231291187312
  N   4.46408669083567     -5.39705047703551     -0.89322294490827
  N   5.76387858775052     -5.55212823777341     -0.73940510130605
  N   6.39176656570192     -4.58811897785620     -0.09361293074575
  C   5.42859718163117     -3.72448509193398      0.20584136283497
  C   5.69240492107897     -2.44275182836949      0.93897736563394
  H   2.89592215812253      1.59505005216686     -1.27306617892363
  H   5.42851163062340      1.65204835811663     -1.30881516731627
  H   6.66737891837087     -0.27981436627606     -0.27976347236026
  H   1.71414953287489     -2.34215260123017      1.08219732856459
  H   3.17398715327304     -2.97740682217927      1.80456400063205
  H   2.54662353687872     -3.21237267702117     -1.16324710614188
  H   2.12927025053187     -4.46642983376067      0.00230338109905
  H   6.25061920064506     -6.34868153038153     -1.10903738725004
  H   6.76366671068899     -2.24371878944730      0.89028587886229
  H   5.43730500241352     -2.58376976981476      2.00020671735980
