28
Coordinates from ORCA-job 2359optt
  Br  1.12702616162728      0.16066755886968      0.35665480439747
  C   2.95285803634139      0.12625862069652     -0.25750435272219
  C   3.76884846925904      1.24070447685161     -0.23085115599004
  C   5.16216800259694      1.13405662687787     -0.29956309089224
  C   5.93555970135324     -0.01948103336098     -0.15297818504964
  C   7.40882658174245      0.16392388795903      0.11802487477219
  C   7.65812674617449      1.50280222637629      0.81648578237411
  C   7.20954640074889      2.67203557423132     -0.05735530213045
  C   5.77367957748517      2.48997503001417     -0.58692716979389
  C   4.70881118964868      3.44950494699842     -0.04635391091375
  C   3.40538858811227      2.69087357060736     -0.23207001031442
  C   2.23992799059836      3.25684093647672     -0.92778917766335
  O   2.28162076159962      3.18374298344466      0.48913594826317
  C   5.37116480163552     -1.32344669845178     -0.12067829733231
  N   5.93850090025508     -2.47767618281231      0.02825796305114
  S   3.59848242841766     -1.49031795442600     -0.40989057426025
  H   8.01927143225182      0.11419923235407     -0.79693804501377
  H   7.76520407297407     -0.64338903683371      0.76509927746622
  H   8.71652933530066      1.61714948832329      1.06829997850212
  H   7.09377106600319      1.50794546521243      1.75367746371525
  H   7.90062111473786      2.75153797445587     -0.90151158332112
  H   7.28782675459057      3.61233782069072      0.49684090546407
  H   5.80128703158294      2.61188002222024     -1.67786442016553
  H   4.70361966828348      4.42807496153710     -0.53100754939542
  H   4.85977597438622      3.59468458329490      1.02784565971545
  H   1.53471014830924      2.57634248751518     -1.39522655425411
  H   2.29163662201496      4.26145688620826     -1.33975077701477
  H   6.94621044196876     -2.35868445533097      0.10693749850609
