22
Coordinates from ORCA-job 23591optt
  C   0.93922557675666      0.16258516046554     -0.14752071451717
  C   2.42470118025936      0.08806804136137      0.08282049497992
  C   3.23068985277227      1.19685722840557      0.02535525132030
  Cl  2.38825495539017      2.70611823775129     -0.14696421397024
  C   4.65010111416492      1.22597653875097      0.19112942810754
  C   5.36353501161033      0.04402889739044      0.44150457650893
  N   6.75831321252887      0.01670399603471      0.47532688236490
  C   7.53192207540920     -0.89083462144573     -0.19480859577957
  N   7.21274202753546     -1.87169269737724     -0.94127360382543
  C   8.96018251558451     -0.67371241336282      0.04429885559677
  N   10.07574601230027     -0.48686087072697      0.22795052428941
  S   4.59590394021800     -1.42375230761136      0.99252408727709
  C   2.90451524683947     -1.22470318527293      0.48319550232353
  O   2.19997812323421     -2.21007409228151      0.59071672400195
  N   5.36966470262006      2.43474862059269      0.11339614713541
  O   6.39328176823917      2.55704296824237      0.83827467399673
  O   5.05094947929477      3.30478069431556     -0.70536803472983
  H   0.70968484448872      0.72755133413876     -1.05043960051373
  H   0.43339789973198      0.66073378879015      0.68346536523553
  H   0.54192640270024     -0.84481094732689     -0.23746995288250
  H   7.17667772957410      0.89597657589047      0.78555363896870
  H   6.20160632874716     -1.92973094672445     -1.04766743588825
