25
Coordinates from ORCA-job 23598optt
  C   2.20125125522676     -1.38430739908521      0.21044145640780
  C   2.37556057233100      0.12694755851853      0.11206597640145
  C   3.12635423788896      0.64587081705435      1.31185729939040
  O   3.19700809331987      2.10464185848750      1.33391747753386
  C   2.63228169254572      2.14956419246538      2.58731522584902
  N   2.42581425114167      3.14941976567295      3.31307580531542
  C   2.41389035508360      0.63524552635064      2.67534872788082
  N   3.04226544086961     -0.13722768806037      3.68175149834743
  C   2.37320748794084     -0.24546355953843      4.82882077400731
  C   1.19621905696159      0.41913445154915      5.22517055759551
  N   0.48421711811033      0.23422224685942      6.33542161235621
  O   0.90455978546849     -0.93109547686620      7.10812619320933
  C   2.15783280887173     -1.35479400357731      6.92979908988597
  Cl  2.68511594669740     -2.33659621745251      8.27542218594497
  C   2.92793739119037     -1.10070298200082      5.87687553300570
  H   1.61786390934919     -1.77271708686086     -0.62528420719137
  H   1.69515166374013     -1.64960079404751      1.14015711451827
  H   3.16964212109577     -1.88779307008542      0.21411608477517
  H   1.40117116318931      0.62228621331906      0.07443856693046
  H   2.91014730669458      0.39750852966354     -0.80303892417245
  H   4.12954673218525      0.22341203984804      1.39366495166826
  H   2.76760065932726      3.99535883499129      2.85486780575051
  H   1.33285624274201      0.42217923241411      2.56505759161993
  H   0.83562246269667      1.27180861621826      4.65920198290410
  H   3.93588224533186     -1.47830160583760      5.80340962006588
