30
Coordinates from ORCA-job 23608optt
  C   1.43759471707402     -0.84120938409535     -0.71061645334269
  C   2.83502749886461     -0.35095450495874     -0.44244994935371
  C   3.09314340354502      0.96088927843507     -0.15885685628688
  C   4.39978212773439      1.46590136525979      0.14969346078147
  N   4.43050663384138      2.69716622647352      0.62008857117061
  C   5.51421405290429      3.42320246731561      1.03882965923110
  N   5.36719571705469      4.16163233953030      2.08974867981064
  C   6.75390206354627      3.45317079480689      0.22724155357558
  C   7.46373769109379      4.77098571162633      0.07295106878861
  N   7.79418458776748      5.05110168462216     -1.34392136588616
  C   7.38117086413044      2.29140077700150     -0.15842387749309
  N   8.71900239429709      2.37825236650673     -0.60282456876242
  C   6.86473654206835      0.97513270109445     -0.09389914392296
  C   5.52676769309997      0.55510092650436     -0.02940894731041
  C   5.18151847415354     -0.80680435644061     -0.24732215115966
  Cl  6.45673186521000     -2.01675977199356     -0.33049278463365
  C   3.90585553592735     -1.26798394431810     -0.45079284667246
  H   0.72554834358962     -0.01654640768076     -0.68110947348206
  H   1.12953991671154     -1.58216805869455      0.03175697720332
  H   1.36649431401281     -1.31771233848412     -1.69205873570049
  H   2.28745223148870      1.68177029757956     -0.08666638871223
  H   6.23895428572874      4.65146825918481      2.27925336697518
  H   8.41626507942836      4.77269286026597      0.62069042842985
  H   6.83607671643048      5.55524743927107      0.50230703966032
  H   6.95651563726643      4.91799593031337     -1.90051833558699
  H   8.08412000882670      6.01640691531650     -1.45366145087812
  H   8.98621904709506      1.58174778466832     -1.16152495470046
  H   8.89642316835955      3.24206166430320     -1.10172120919115
  H   7.59778091315192      0.20084541939800     -0.27935985336427
  H   3.73453847559730     -2.32103444281176     -0.63193145918681
