29
Coordinates from ORCA-job 23601optt
  Cl  0.87823688004601      0.60143462598026      2.52401071890194
  C   1.97605758757341      0.68709545850589      1.15925821597651
  C   2.78460482658466      1.73056411863217      0.95280108302706
  N   2.80646548420159      2.89198529035822      1.78743655829967
  C   2.52769278139318      4.14015471329270      1.05452728826860
  C   1.06748041585622      4.57755180451663      1.11992913850720
  C   0.09133351799798      3.57694914212375      0.53517992777474
  O   0.47041925784090      3.30535022842991     -0.80616441219870
  C   0.06799772768617      2.12070465081699     -1.34832836515949
  N   -0.85286599777061      1.35728809683402     -0.93020858847385
  N   0.82422715092511      1.83614726329195     -2.47187278283578
  C   1.36402539735456      0.45341184073132     -2.51848078262464
  C   2.38173817179070      0.25098134840762     -1.42424755994629
  S   1.92952231197267     -0.65952580532087      0.02767004249311
  N   3.36003431916667      1.16066377633374     -1.36351106115454
  C   3.76006879688080      1.70563830200439     -0.19590293767428
  N   4.87060108974406      2.35706236569449      0.00987483764140
  H   3.77376200157098      2.96186612495987      2.09198077748907
  H   2.84543515333797      4.06649369962574      0.01041121825414
  H   3.13329559406032      4.92512092050239      1.51166208584731
  H   0.97041071400991      5.53105340670816      0.59152474489383
  H   0.78149242813879      4.74167746057156      2.16251983182204
  H   -0.93081290463578      3.97128497306901      0.55880742153486
  H   0.12319107514026      2.65666412804626      1.11924119661959
  H   -1.28455933281946      1.70115120278946     -0.08098129297372
  H   1.61532893060859      2.47108384396311     -2.49695940627240
  H   0.53387143273356     -0.24317870498136     -2.43606426621257
  H   1.83636875101714      0.34369010427370     -3.49689547297754
  H   5.42857643759358      2.29163561983888     -0.84021815884725
