27
Coordinates from ORCA-job 23600optt
  C   1.25735894333566      0.05225510809872     -0.30523138971148
  C   2.63787634547637      0.11795295102895      0.27846103105324
  C   3.42069836425353      1.22749634907663      0.34068426106843
  Cl  2.70340177597943      2.69891143434698     -0.31287514430624
  C   4.73712247871772      1.34091954699028      0.84116209619040
  C   5.50986865307311      2.52116470092837      0.84755200888406
  N   6.77785365325901      2.58425893564969      1.21382720713776
  N   7.41413058178010      1.54060262948898      1.65714880693705
  N   6.67203286265706      0.36399282394596      1.80073542463792
  C   7.44461212353743     -0.73787044441177      2.26813519401126
  C   8.34479929379185     -0.50504582410654      3.43221417639158
  C   7.10104415117201     -1.32402156531641      3.60590316474971
  C   5.38723386603570      0.15998296768271      1.32879327345846
  C   4.82183478277981     -1.08473019802894      1.34678873671149
  S   3.19038998144254     -1.39651942986986      0.93469915046352
  O   3.10482432939152     -2.41700459315773     -0.09897039045653
  O   2.40783410616208     -1.71613373862424      2.11910140231997
  H   0.56992806352914      0.70890094779331      0.23194415166990
  H   0.87800995876655     -0.96725226113233     -0.25014793080097
  H   1.26197632947264      0.35808342037076     -1.35355153558602
  H   5.08945930653376      3.45255002682827      0.49614584699690
  H   7.77836938779649     -1.42543122637539      1.49581684609488
  H   8.35331237528276      0.50127251475354      3.82257410303425
  H   9.30050249840764     -1.00966762861790      3.43028090619405
  H   6.26382259678808     -0.87027179964132      4.11697123766366
  H   7.19099621856101     -2.39485224874268      3.72569895383993
  H   5.33470697201686     -1.96354339895804      1.70513841135278
