26
Coordinates from ORCA-job 23612optt
  C   1.30401456495090      0.54227239646401      0.75173393833568
  C   2.45712770982590      0.25692558900871     -0.17120425528061
  O   2.45805564151188      1.14239525379791     -1.26764666454082
  C   3.01823428030291      0.52080230761362     -2.37644380906485
  C   3.14708598249622     -0.89228683927109     -2.28758481996172
  C   3.67243423699570     -1.53687310119618     -3.43783616049901
  Cl  3.83575499768585     -3.27287751443847     -3.38739454642058
  C   4.05054021603454     -0.78219909953069     -4.52008819982495
  N   3.91874158268471      0.57323422361142     -4.57469041579384
  C   3.40432937026998      1.19981320638618     -3.49311160774398
  N   3.25077406269498      2.59397353481125     -3.59302517015526
  C   4.63583471993009     -1.40827581173389     -5.73597636522727
  C   4.57973086588897     -0.72017221829411     -7.03055465024514
  O   5.79073387217633     -0.78842194503153     -6.30443738720441
  S   2.36447151282293     -1.43161394263558     -0.87736368272790
  O   3.14243296200456     -2.32799302487950     -0.04341536303217
  O   0.96173638533147     -1.78241856396994     -1.03033016321851
  H   1.39089964097304      1.55167029428000      1.15559733644187
  H   1.30900190894364     -0.17319166407647      1.57505704764801
  H   0.36752270404031      0.44139148716061      0.20577430067118
  H   3.42454643476312      0.28182563716042      0.34338806007170
  H   3.96695218894595      2.97751937596093     -4.19541833600346
  H   3.23804033099398      3.04638252797269     -2.68941287761376
  H   4.68370245937930     -2.48957021580739     -5.73981665165861
  H   4.12149984394207      0.26145464670894     -7.05376515688009
  H   4.55680152441060     -1.30676654007185     -7.94503440007144
