28
Coordinates from ORCA-job 23616optt
  C   1.29512943777483     -1.15308776571319      0.48775940701399
  C   2.31902820218917     -0.49976988500032     -0.41063704201082
  N   1.77674366545057      0.26100670176165     -1.58750376518612
  C   2.93271869758489      1.20961145894767     -1.40100771834727
  C   3.04779100652201      0.77600771337549      0.04887824494029
  C   4.39604303909540      1.10558266338726      0.67157481229171
  N   5.56945644739075      0.57488307634587     -0.03075267310607
  C   4.42632295631664      2.65016491352873      0.65258228458844
  C   3.91604454583136      3.30316225644896     -0.62023715182161
  C   2.98470246414841      2.68927825081887     -1.51802438187472
  C   2.40894380879800      3.39896677984445     -2.57282472729204
  O   1.66316360037969      3.04458804015553     -3.46332567785385
  O   2.73841934908028      4.81185523227945     -2.60030281202734
  C   3.65071371725787      5.25551723138800     -1.71041923041602
  Cl  4.04267577718231      6.92790886441678     -2.00805116885054
  N   4.23221481344893      4.61609196166556     -0.77059232630764
  H   0.70430988424792     -1.88254105499781     -0.07078033227092
  H   0.61377914581188     -0.40374975624549      0.89743145676521
  H   1.77682078148122     -1.66770632189139      1.32190560972954
  H   3.01372853400643     -1.25153299236901     -0.80162243760494
  H   0.93493024778201      0.75078392990070     -1.28446926283456
  H   3.74273323274841      0.75280248708992     -1.98721016397048
  H   2.29277122442117      1.35255363655748      0.59952256420253
  H   4.45418710251603      0.76868295135148      1.71128573066250
  H   5.71645032429810      1.12004432776210     -0.87519744601735
  H   5.39947884412488     -0.37878777093657     -0.33306503679084
  H   5.44133495255454      3.00261018603201      0.85017675518611
  H   3.81136419755625      2.99307288409579      1.49890648920282
