22
Coordinates from ORCA-job 23614optt
  C   0.93990370093239      0.14331833349129      0.22537563221998
  C   2.42456680275154     -0.01977694948794      0.08123941303958
  N   3.20713445512148      1.00839916149379      0.41992876776434
  C   4.52109670130063      0.90472345029953      0.31160698313688
  C   5.20792689386448     -0.24170100469480     -0.13897005607962
  C   4.38408446550331     -1.31610618230330     -0.51206168020905
  C   3.01534168661786     -1.18653523476729     -0.39299469182985
  Cl  1.99879370940769     -2.53189415941684     -0.86291967935509
  N   6.56653133592062     -0.18599574978477     -0.27384694671900
  C   7.33513618245514     -1.20628649580037     -0.00159436060511
  O   8.61004912385312     -1.04243762368919     -0.40040091679761
  N   9.66603454269466     -2.07050175551079     -0.14671771411851
  N   9.30003626387459     -3.11674178347565      0.48108510673957
  C   8.05544694695527     -3.30771288701182      0.90573720205709
  C   7.02475229305028     -2.39851846822049      0.68910904252354
  H   0.73825259340974      1.13796209706017      0.61715530832889
  H   0.51849391477057     -0.60245235338003      0.90311311522943
  H   0.43031949923011      0.02593669021281     -0.73380405246678
  H   5.11191258862028      1.77193694602163      0.58686914537094
  H   4.81558369409770     -2.22766256444606     -0.90307934725501
  H   7.88930632812578     -4.23578937912923      1.43858108785260
  H   6.03329627744268     -2.56216408746063      1.07858864117278
