26
Coordinates from ORCA-job 23624optt
  C   0.63429828439696     -0.03402755194222      0.47473381308774
  C   2.13272063873305      0.00904652787677      0.22122846119728
  N   2.83058946949425     -0.43986372582802      1.41503432950624
  C   4.08400495293332     -0.49634022999360      1.45331503796251
  O   4.73010544646979     -0.92422623411318      2.58298085611026
  N   6.12098815561499     -0.88803483133183      2.39256205937412
  C   6.27510891590830     -0.45438988412143      1.20157179918718
  N   5.10185603480058     -0.19333693724738      0.54907423620028
  C   4.99621154272851      0.35045603477729     -0.76185635679687
  C   5.19581696141021      1.69411329534861     -1.01038761342621
  C   5.02183692704640      2.72870940164670      0.06551399761820
  C   5.59064045431362      2.19193926384782     -2.29541621314250
  O   5.52643563963649      3.38834829184939     -2.61799716972412
  N   6.24600869355645      1.27558443833093     -3.16876073491570
  C   6.04132808045236      0.04493967301646     -3.14680705095798
  Cl  7.00663748308031     -1.02180719116701     -4.18697203387370
  S   4.90981027445087     -0.80970008615571     -2.08254718768915
  H   0.08101031997531      0.29775327616593     -0.40567227332022
  H   0.37659904454221      0.61050427734232      1.31616172217212
  H   0.32371867640626     -1.04968265738936      0.72351762688131
  H   2.43242770625520      1.02577442177918     -0.05247489009165
  H   2.37440262327400     -0.62281949272518     -0.64078616369599
  H   7.23557563470901     -0.30445246207445      0.73329893546278
  H   4.88589325311426      2.27853286922615      1.04906137636705
  H   4.14745795494659      3.34540780219610     -0.15837855643639
  H   5.87651683175061      3.40657171068574      0.08800199294342
