27
Coordinates from ORCA-job 23626optt
  C   1.21506436645831     -0.25182574328915      0.28209552465128
  N   2.66466167159909     -0.05342595486856      0.29003339961174
  C   3.00511883301341      1.28966255646992     -0.17580228467856
  C   3.10059765909331      1.33836939665429     -1.70153849643942
  C   4.26134792822414      0.43719436920233     -2.09524093184032
  O   5.47463273911593      1.06559734190347     -1.61224063746958
  C   5.57315805782324      1.09606436143489     -0.20522477629096
  C   4.34049651135570      1.71590147336622      0.42688674491810
  O   4.41034590284954      2.50997865623500      1.33176928683894
  C   4.07673662175759     -0.95265539803482     -1.56388425169572
  C   3.37219008304508     -1.13478644901619     -0.33756689754631
  C   3.36084487055425     -2.35363657391752      0.40034346377252
  N   2.89976052060564     -2.58385466466866      1.58760581384460
  S   4.01894250631356     -3.79981088337756     -0.39858455145991
  N   4.70710672052190     -3.30153296447556     -1.83964842232534
  C   4.68869273084545     -2.05887647358979     -2.17935704651373
  Cl  5.58253209705373     -1.75921052765086     -3.69944417952290
  H   0.74686269298904      0.45577713760388      0.96982676721922
  H   0.98914201637218     -1.26379083998732      0.61286335440330
  H   0.78083636259635     -0.11551675685508     -0.71881778002005
  H   2.25592627519886      1.97806889396586      0.21682812515154
  H   3.29304598612804      2.35534772163456     -2.04997097216245
  H   2.16920655074629      0.98297055640233     -2.14739097078158
  H   4.39284945945612      0.42398161191894     -3.17303279635088
  H   6.44091083151070      1.69976394977968      0.05618829839558
  H   5.69846332074998      0.08637304440162      0.20843438627680
  H   2.58852668402249     -1.70412784124193      1.99686983001410
