34
Coordinates from ORCA-job 23620opt
  C   1.10740894058121      0.17949050821749     -0.05864534480398
  C   2.61044021647204      0.00297360893854     -0.30714467851488
  C   2.98291450330584     -1.24236372972135     -1.10828090683068
  C   2.39580605577560     -1.61804418099215     -2.31108707997592
  Cl  1.21848007286486     -0.59297721448485     -3.13714732089982
  C   2.66275638628965     -2.79823210717841     -2.99996065204624
  C   3.58764059836975     -3.67850204975106     -2.44482913630097
  C   4.22615815572389     -3.35770565703784     -1.27333625669480
  C   3.98714264136223     -2.14200275292728     -0.57913718126806
  C   4.78741991773466     -1.87829582105346      0.60698920447652
  O   4.84006498608525     -0.79623070584778      1.26884284059766
  C   5.63934371363802     -2.95429979485208      1.07133564308702
  C   6.37764108142306     -3.80377903951300      1.51131697278393
  C   3.33974494704830      1.33371961400053     -0.72320594837587
  C   3.62421577675672      2.12345316584128      0.56173838859882
  C   4.67885034471383      1.02897140091388     -1.39909891904387
  C   2.51737571917869      2.22542438003683     -1.65737415377421
  H   0.68510724348642     -0.76149672656268      0.29968361044978
  H   0.53774417696083      0.49160450220342     -0.92907101842670
  H   0.95690767220340      0.92665684296048      0.72528485806629
  H   3.02624797828988     -0.20857816421481      0.67190761743599
  H   2.15654561601654     -3.00503955158628     -3.93117571338696
  H   3.81156971191109     -4.61310348387291     -2.94577407857448
  H   4.95562433959353     -4.04295558528360     -0.86515308768221
  H   7.02834379578351     -4.54665392059524      1.90236377246560
  H   4.26854608544857      1.53782336976933      1.21849235479938
  H   2.69827254361241      2.35751472263468      1.09434776525921
  H   4.11825509451443      3.07056138638476      0.32473059636551
  H   5.29637387872943      0.40097757268089     -0.75605559936644
  H   5.21333870158369      1.96339128001436     -1.59602693873496
  H   4.52885685517307      0.51433453405644     -2.35076864744783
  H   1.56350421059946      2.51015010533682     -1.20771944507161
  H   2.31451399499437      1.73782408390751     -2.60924354933972
  H   3.07584404377554      3.14438940757756     -1.85879796782545
