34
Coordinates from ORCA-job 23636opt
  C   2.62426327025849      0.51658527276822      1.43105269043517
  C   2.24600513581379      0.21943505699140     -0.01272198813918
  C   2.84128214861186     -1.10078506111034     -0.53745558970313
  O   2.26424992398150     -2.18256465784984      0.19641544605371
  C   2.41041546646837     -1.36745915115229     -2.00892096985978
  N   1.33110718467340     -0.93212921470275     -2.55809371672791
  N   3.20801196183343     -2.22033094319735     -2.68651338178641
  C   2.98689787825992     -2.46656407002171     -4.08819792968786
  C   4.36190851723739     -1.15178013701433     -0.35342884980587
  C   4.97078577697789     -2.08618566640614      0.56115766247575
  Cl  4.34105905858968     -2.26145322855454      2.29878404745533
  C   6.39124024503463     -2.16614326497231      0.52165154417002
  C   7.10320447066535     -1.36842257278410     -0.32496380775721
  N   6.55089330544765     -0.45928286724924     -1.16062713279885
  C   5.20171505408401     -0.39828817777847     -1.16436498965751
  C   4.71011094086931      0.57347778668821     -2.22546997117984
  N   5.35289501228279      0.25986861020555     -3.50682441647822
  H   2.14932588236992      1.44298838790848      1.76181085338453
  H   3.70413015248238      0.62014571498546      1.53691425370280
  H   2.31112931267123     -0.29553586212346      2.08536150529361
  H   2.55998063359616      1.04320311348781     -0.65689150915920
  H   1.15405053059492      0.15706728714212     -0.07757355168375
  H   1.35004509616657     -2.26074786636445     -0.09565610486047
  H   0.84078379728832     -0.30185771994604     -1.93488242809757
  H   4.13128088291339     -2.36511982887461     -2.30914719171469
  H   3.04809383899495     -1.53779540571821     -4.66263189949166
  H   1.99673211836950     -2.89699693866962     -4.24304416021719
  H   3.74647530200232     -3.15895576834743     -4.44576088588051
  H   6.90411710281491     -2.85997369128188      1.17779276038497
  H   8.18672633143549     -1.45280028936007     -0.36625679370088
  H   4.96310036282804      1.58190392971619     -1.86596883296283
  H   3.63415094484340      0.54088367633617     -2.37072337804133
  H   6.33659898137987      0.10467369891843     -3.30201885078608
  H   5.28323337815897      1.04893984833125     -4.13780243317797
