23
Coordinates from ORCA-job 23631optt
  Cl  1.04450210075816     -0.07054614825710     -0.33384639683814
  C   2.77867600118691      0.01430720303754     -0.30315620191060
  C   3.50754379388847     -1.17881793182389     -0.39145248048132
  O   2.86400195448218     -2.39524701289639     -0.53697638855072
  C   3.83153657031278     -3.39676895436665     -0.38958222626141
  C   4.54119827962901     -3.51864029589788      0.92230377532299
  C   5.18708824683638     -2.77143629367613     -0.23006457170006
  C   4.88403809187948     -1.31789074204943     -0.27781287774893
  C   5.75388782494301     -0.25175519392884     -0.14037998560912
  S   5.18040629148999      1.38899699355158     -0.33021679616933
  C   3.37201751172042      1.29583976205748     -0.21944812936761
  N   2.69316899059889      2.39418771787757     -0.13592676255009
  C   3.41176404327410      3.64020604573764     -0.09154997435554
  C   2.50436250213476      4.78495873988452      0.05553548233607
  C   1.79014137509981      5.74093800245188      0.17565162855925
  H   3.62797230958600     -4.27129055363129     -0.99008103409032
  H   4.92542764282231     -4.50047116421969      1.16808197408072
  H   4.17984565357909     -2.92363292559447      1.75058977996896
  H   6.07979719204881     -3.17014977727761     -0.69487486497027
  H   6.79135514581314     -0.35146522800721      0.14014780131338
  H   4.00803314590589      3.81166241391339     -1.00155800087605
  H   4.13074028230703      3.67697131178500      0.74156346603885
  H   1.13949504970332      6.57404403132995      0.28005278385930
