30
Coordinates from ORCA-job 23640optt
  C   1.01224654295673      0.27502223959895      0.12593960697055
  C   2.53344856778463      0.17278216478456      0.07768033256896
  C   2.93652218131056     -0.62231406707687     -1.14775926104740
  O   4.34122354048630     -0.85464862069302     -1.13989541482474
  C   4.82243361160899     -1.46072813827060     -2.29773352679283
  C   6.33995329827978     -1.49538584114463     -2.23152281851988
  C   4.28554450148971     -2.84064330794099     -2.45329804716994
  N   3.88806838758695     -3.90743892334319     -2.58504675523474
  C   3.19011263642660      1.56225463352761      0.06347865983654
  C   2.84511942420703      2.36492739277305      1.28257482170990
  C   1.92794671398493      3.34302377077220      1.36266031264426
  Cl  1.00549887639562      3.84673390565563     -0.02125432462453
  C   1.59329770722063      3.93449557936450      2.69608363493470
  O   0.61131473911106      4.67966941208271      2.80233903260023
  N   2.40870531870812      3.62002507054194      3.72047246526565
  N   3.43963551303078      2.77496899536068      3.61979178110240
  N   3.45535726367027      1.98304949071400      2.44514382959654
  H   0.55298023467023     -0.71462034868853      0.16694468812627
  H   0.63610027286646      0.80085032295464     -0.75507460885282
  H   0.69574861117873      0.84255448950602      1.00035601353011
  H   2.88252112747749     -0.37006998359189      0.96102118159545
  H   2.66807788941728     -0.06589237881081     -2.05749686653308
  H   2.41171891672190     -1.58495561042444     -1.17035641878503
  H   4.49511773017333     -0.90225040809053     -3.18516414913691
  H   6.65477625441946     -2.06148760529592     -1.35639250306712
  H   6.70713409606265     -0.47440267860231     -2.14510050282604
  H   6.75325800199278     -1.95794429720128     -3.12668271169539
  H   2.86153206476958      2.10297607515236     -0.82592034836200
  H   4.27551542352767      1.44352849108024      0.00302847778825
  H   4.33109055246356      1.49192017530588      2.36118341920265
