22
Coordinates from ORCA-job 23641optt
  Cl  1.03671818127334      0.18772278205852     -0.15120177626072
  C   2.79441205398702      0.12487717035564     -0.12793346510831
  N   3.38102554828103      1.29433621176059     -0.12992825321483
  C   4.71137939983163      1.28331277309395     -0.12743341299741
  C   5.46977637992145      0.11961263763198     -0.09428291779394
  C   6.92603700708355      0.49335069348425     -0.04960935234414
  N   6.96370818645883      1.93312473041265     -0.39959495591120
  C   5.62468026300526      2.48112239734845     -0.09630087520497
  C   4.84837341157716     -1.11058469582640     -0.06710100581664
  C   3.41785927382303     -1.16045688443228     -0.10867953101645
  C   2.71565731741072     -2.37669907299194     -0.13457403903568
  C   3.29167274283611     -3.65482787696012     -0.13497889027713
  C   4.65085750006463     -3.97555313967494     -0.07630511115947
  O   5.19703494169934     -5.07362744190909     -0.07379750112149
  S   5.83603375820388     -2.55555940827968      0.02457040765101
  H   7.54472039212809     -0.08773183456396     -0.73572377848009
  H   7.33403986379670      0.34285385508739      0.95594661884391
  H   7.08920204247823      1.98989720928721     -1.40281305553370
  H   5.35055150467175      3.25564909150610     -0.81403379023148
  H   5.63186965517244      2.94353221435085      0.89766125440766
  H   1.63762272234667     -2.32246383206265     -0.17170143082346
  H   2.63976785394909     -4.51988757967652     -0.17918513857146
