27
Coordinates from ORCA-job 23650optt
  C   1.10054797451971      0.28874914763029      0.02600943976511
  C   2.56860198764374      0.07536441759277      0.24707238095730
  C   3.41224030055906      1.09406420666742      0.56476357117339
  O   3.09343608476037      2.42432203539875      0.74023923888154
  S   5.06011787447064      0.56198764188647      0.74724563704184
  C   4.61489514371482     -1.10086860796699      0.36290150892146
  C   3.22881237710985     -1.18003357209773      0.12161045640933
  C   2.51610264568313     -2.43205332806643     -0.29656245174895
  O   2.43511805695094     -3.44027783936553      0.70353138398365
  C   5.59761160110712     -2.11865336784716      0.38725682552520
  N   5.20550598918514     -3.44196007151227      0.28804052828934
  C   6.14707006501237     -4.37757302500984      0.25097320288720
  C   7.50546132073595     -4.16055822917490      0.33085495503223
  O   8.45419900565044     -5.16238837029065      0.27472454400432
  C   7.91345138915880     -2.81783010152285      0.50392630903874
  Cl  9.60824171627964     -2.46620394058337      0.67502336769742
  C   6.98674367702607     -1.82153914644421      0.53378482213394
  H   0.83226296255028      1.32092719609141      0.24864708937896
  H   0.50952358663194     -0.36959322378355      0.66618545897433
  H   0.81801630477761      0.07537776003342     -1.00831222353771
  H   3.46270263277295      2.92970854172188      0.00622900219421
  H   3.00253094779051     -2.85460094420109     -1.18456993491297
  H   1.48823536433798     -2.18735933452476     -0.57034333403959
  H   3.36917215340694     -3.70415373198543      0.81668008525017
  H   5.79426380147959     -5.40692169698643      0.15928759121563
  H   7.98900973514009     -5.99865321592765      0.18304569093733
  H   7.32112530154414     -0.79927919973148      0.65375485454655
