25
Coordinates from ORCA-job 2365optt
  Br  0.95834721827704      0.10224823933087      0.31876236412603
  C   2.85668977050182      0.12009074584710      0.16496310140550
  C   3.58471262011521     -1.08659969976946      0.06491410497397
  C   2.96678785294254     -2.47006223610953      0.02059360843749
  C   3.50673899771523     -3.24505978890196     -1.20411619021528
  C   5.05408385514647     -3.24934765534960     -1.20294863789563
  C   5.55298701470013     -2.52541263486957      0.05666974875503
  C   5.00448156745275     -3.25581992136781      1.28689297085799
  C   3.48249859741728     -3.20208554424113      1.24930169484233
  O   2.78567977674397     -3.69613618653749      2.10064891952110
  C   4.98966654026685     -1.11974998390996      0.05545397853657
  N   5.84412202272024     -0.12233501602945      0.07105060633345
  S   5.24989133222968      1.44336360929498      0.07653294249665
  C   3.43996139441447      1.40393851208725      0.18101355058507
  O   2.90199955661160      2.50112073101266      0.25161995315005
  C   2.94967790572802     -2.70557612564975     -2.50248301291949
  O   1.91821882368348     -2.11186544519604     -2.62176395990990
  H   1.88144671201683     -2.44403310501540      0.02249851330292
  H   3.13911464983875     -4.27959004384480     -1.15912242513689
  H   5.43881544490326     -2.73363111370791     -2.08649966929014
  H   5.43957479641290     -4.27141651829867     -1.22883148262239
  H   6.64020985062624     -2.47025007372149      0.07162586334957
  H   5.34567842211933     -2.78619762640421      2.21120783423385
  H   5.30437111962478     -4.30821293523886      1.31799543706094
  H   3.57324415779105     -2.92938018340971     -3.39597981397879
