25
Coordinates from ORCA-job 23659optt
  C   1.42255425129643     -0.33830260764689      0.08464591388349
  C   2.64149428873021     -0.38585984885748     -0.82483778853045
  N   3.63764327551225     -1.36289310950570     -0.39502945760943
  C   4.50330561546136     -1.27925101152485      0.64194879145863
  C   4.83221768127591     -0.15003058563976      1.38806827205586
  C   4.27205952866334      1.19470136877941      1.12284995767193
  N   4.61399348209554      1.92282886407578      0.02457060536042
  O   5.48596769453836      1.12469158204767     -0.78951243778135
  C   3.38320624326957      1.73018596899971      2.03941208469614
  C   2.49533471945756      2.11264012091717      2.80459416257097
  C   5.77673560949806     -0.41886365679360      2.40076825976600
  Cl  6.27746773384067      0.93526829647661      3.38000151851228
  N   6.33883634588942     -1.55237557412318      2.72941929434785
  C   6.03994604454718     -2.65080676923629      1.99221037636027
  O   6.49748925083495     -3.77204895344418      2.14906530654323
  N   5.11427599182124     -2.45613435962019      0.95802961843640
  H   0.70274283387931      0.38625161982674     -0.30009397797316
  H   1.70379681028763     -0.01701526545803      1.08800073914837
  H   0.93426515999403     -1.31507122276547      0.13801926382794
  H   3.10828741711273      0.59262089470148     -0.89786984386341
  H   2.35292685313344     -0.69215735396627     -1.83334819496004
  H   3.46486976393243     -2.30103963602576     -0.71698273957291
  H   5.76567260444496      1.76582934979816     -1.44543979680314
  H   2.22407331729201      2.64923995027162      3.68939392604014
  H   4.91383748319121     -3.29240806128669      0.43011614641393
