28
Coordinates from ORCA-job 23666optt
  C   3.68951535325725     -0.65652075101075     -0.59978604774829
  C   2.43505159083185     -0.25401553488351      0.13455156434743
  C   2.53781431696962     -0.20220394832441      1.64189962369460
  C   3.67624628315459      0.68962620605360      2.13986856669006
  O   3.59424596492361      1.95847286887383      1.45911271114512
  C   3.65743083684542      0.83094064414912      3.59212760045796
  C   3.67801418900375      0.49294684633659      4.77305671786553
  C   3.75661788471793      0.22318713617264      6.13277524261863
  C   4.99894552650904      0.24747717768938      6.83474309556065
  C   4.99683602307288     -0.02507166374494      8.16763011937696
  N   3.86336752891135     -0.32276903881566      8.87626603356160
  C   2.78023221853377     -0.30517176461385      8.11439726282587
  Cl  1.28495002143959     -0.67561040843289      9.00819399711239
  N   2.60399799648680     -0.07113961955799      6.85378498773693
  C   1.49410567040223      0.64514320131857     -0.55534553377881
  N   1.15256489094765     -0.76940780473641     -0.35664439450458
  H   4.47024373810781      0.09176672790105     -0.45368813518285
  H   3.49823984790660     -0.74351974480978     -1.67199231383236
  H   4.06272847135010     -1.61717477835425     -0.23501615204352
  H   2.69828237512997     -1.21134404260338      2.03177256509235
  H   1.59421785904539      0.15947735510186      2.05328888594608
  H   4.63316256879512      0.24115464935593      1.84378203582907
  H   3.58868917135934      2.62252195906755      2.15613710199665
  H   5.91508209853324      0.47978316747500      6.30868437743516
  H   5.91836153241448     -0.01761015796523      8.74044491654240
  H   1.75150309635105      0.97731223106465     -1.55462631364321
  H   0.90969433791526      1.34393017591071      0.02847017455619
  H   1.29285860708412     -1.28418108861741     -1.21988868965819
