27
Coordinates from ORCA-job 23670optt
  C   0.74107242542538      0.58280029375486     -0.08228775664199
  C   2.22103367619958      0.33299780327164     -0.10148085716498
  C   3.12575495160293      1.30615209310220     -0.01724152861369
  C   4.58904600153522      1.09354951820858     -0.05995620064477
  N   5.40471080365652      2.10708231970893     -0.02242281377781
  N   5.08900989752596     -0.15824601671680     -0.13511084597548
  C   4.41732485861439     -1.29915546471603     -0.18781957919738
  S   2.61866340771805     -1.35426688012491     -0.26616880510402
  C   5.15795617554226     -2.52867802499862     -0.13202446730526
  C   6.55899871906277     -2.40009202641609      0.13457302512188
  C   7.39280460422662     -3.47768151601281      0.26534737750515
  C   6.91673332940487     -4.78561938443580      0.13515076418964
  N   7.72039321703515     -5.97515899407258      0.25672571599414
  C   5.56240482330645     -4.96065662293768     -0.15733310830542
  O   5.09460755778339     -6.22685488564213     -0.32384160659571
  C   4.70638786899331     -3.87525327972467     -0.29794612751113
  Cl  3.07964918302121     -4.29489904410801     -0.76752666054180
  H   0.53897547110422      1.64994506824924      0.01021281498893
  H   0.27105064719400      0.05901147076062      0.75297858973523
  H   0.27764689571016      0.21271833250526     -0.99986010695025
  H   2.77780035183230      2.33093349917745      0.07514601565016
  H   4.85816251476119      2.96328790507007      0.03775378262569
  H   6.93675507194281     -1.39505273907962      0.24220336946912
  H   8.44504555956601     -3.31717240041156      0.47934879637900
  H   8.13925354487112     -6.05096658033861      1.17677994725237
  H   8.47457634079628     -5.98538782845324     -0.42049052292612
  H   5.87518210156772     -6.78733661561969     -0.18470921165549
