27
Coordinates from ORCA-job 23687optt
  Cl  4.35422276534054     -2.59973730368791      0.24739925437604
  C   4.47456206191490     -1.05163002266862      1.05233259319995
  N   4.80306132883540     -0.05699899476089      0.29258947441310
  N   4.76297445575142      1.18140365555327      0.97018349361184
  C   5.37001130658034      2.22029241432234      0.15621636093823
  C   6.84004705764302      1.98692278614233     -0.19968905926820
  C   7.57809491233888      3.28402911497419     -0.61799787829182
  C   8.06620828863421      2.91303224703993     -2.04335986187067
  O   6.95914517533251      2.15354112364201     -2.51362717068496
  C   7.01559325939382      1.14147890321874     -1.49858821963066
  C   8.47924165542028      0.74314477221217     -1.54605140031575
  C   9.13904500074672      1.84516676774022     -1.88371356554810
  N   5.33094165671018      1.19718484237238      2.26088144861605
  C   5.02344003587174      0.15807013244018      2.95961415334952
  C   4.32526548793569     -1.01184012602818      2.47359093367629
  N   3.84556607917108     -2.01481939388501      3.20715993818702
  H   5.27338938265629      3.14047816345916      0.73335796194171
  H   4.78069902590502      2.31925909596869     -0.75859322649462
  H   7.31764883612019      1.50147536389081      0.65106100893391
  H   8.39153074515999      3.55864926032584      0.05260307557843
  H   6.87924002488121      4.12014175519304     -0.68231362978760
  H   8.27993932127963      3.74519041699929     -2.70959509704753
  H   6.26111108373633      0.37824139121889     -1.64655734189889
  H   8.87256061777579     -0.21361434731022     -1.23563975342287
  H   10.20616477607021      2.01048735221452     -1.92174572405695
  H   5.39013158445854      0.14922290454261      3.98450992419089
  H   3.93016407433591     -1.75577227512981      4.18997230730563
