30
Coordinates from ORCA-job 23681optt
  C   1.05434426975663      0.34385504719872     -0.34776400960791
  C   2.48671377798478     -0.13691529481672     -0.07483066759920
  N   2.55193020089638     -1.58080311833807      0.12680967295705
  C   3.37345007379768      0.20358598248170     -1.27543971544444
  N   2.83968834328302     -0.37955910681214     -2.51299409193817
  C   3.02318211627713      0.59566590712610      1.19381120624690
  N   2.44997510878211      0.10269687091168      2.44836391095133
  C   4.52960971906518      0.60924188762017      1.29317566569549
  C   5.29888241132084      1.71168174984145      1.11257864762110
  Cl  4.57646008038545      3.25529222258996      0.69387239662331
  C   6.70721623557700      1.70538455409488      1.27271568785819
  N   7.58052667463603      2.72880554081912      1.13225702020775
  C   8.73434910112773      2.16971377517314      1.52255833881024
  N   8.71073885503111      0.88626591451006      1.91154155203223
  C   7.40637923238544      0.54966737748487      1.75406297403296
  N   6.89339342522961     -0.65784058281836      2.03441460623446
  S   5.31023143187406     -0.92628207515306      1.64924920931095
  H   0.63048086210786     -0.19937531718631     -1.19437164987406
  H   1.02882457229728      1.41591805830398     -0.56280187679949
  H   0.40807131460071      0.15762292085744      0.51365578506170
  H   2.42013963001261     -2.04034414617539     -0.76869178991274
  H   1.81937398058997     -1.89325164176147      0.75307563664746
  H   4.35713700461335     -0.23073451899180     -1.09878522228511
  H   3.49600727628631      1.29152616457558     -1.32691161477319
  H   3.56601774114580     -0.41852054643851     -3.21619015196356
  H   2.09688991679668      0.19524597900462     -2.89229475412282
  H   2.71501222409861      1.63639302086859      1.09385763358407
  H   2.85054999626631     -0.79758720924786      2.68815237999338
  H   1.44398442104087      0.00422291277388      2.38445232940331
  H   9.65644000273342      2.73842767150373      1.52047089104882
