26
Coordinates from ORCA-job 23694optt
  C   1.01724755374240     -0.35734852050506     -0.97192455648022
  C   2.48402770666740     -0.14847973654779     -0.66702659280097
  O   3.01067986182648      0.72459871622751     -1.65532511234166
  C   4.36829909660567      0.89238821300512     -1.57182855209348
  C   4.98998657702276      2.12715215524427     -1.59944252128536
  N   6.36306499618106      1.89584946718851     -1.55601260642566
  C   6.60190115950316      0.55400958766738     -1.48842239797232
  C   5.36036712581380     -0.11127207521179     -1.49513425887866
  N   5.27656499632735     -1.49698377283652     -1.44937344792070
  C   6.46848662903342     -2.04965402424159     -1.37337430224012
  Cl  6.41284751244243     -3.83817037313198     -1.27533160573465
  N   7.67705656260218     -1.56080854153995     -1.35623394923463
  C   7.77935536331915     -0.18108736536689     -1.44038405922873
  N   9.06336985634108      0.42929756192325     -1.40562901713240
  C   9.91499872246207      0.03130983102621     -2.52614855916924
  H   0.56478753450023     -1.01443974710527     -0.22727924091547
  H   0.90174753128448     -0.81487080475998     -1.95499096817658
  H   0.48309125320885      0.59438942809333     -0.97028032524885
  H   3.03262183705409     -1.09260414458882     -0.68154982937470
  H   2.61718258036181      0.31003583759999      0.32143757720361
  H   4.56983802704630      3.11439911238749     -1.66750462059696
  H   7.08904397026671      2.58697430988053     -1.57159497326248
  H   9.53392649535049      0.15972342890129     -0.54370804380738
  H   9.49087872192350      0.43036993043066     -3.44919544246099
  H   9.99275768457010     -1.05656880845156     -2.62796325471364
  H   10.91487064454277      0.45379033471166     -2.39377933970769
