30
Coordinates from ORCA-job 23698optt
  C   2.46657959729306     -0.18443298617835      2.07406948577989
  C   1.98677566475124      0.85682667182497      1.07925100900688
  C   3.08113051538132      1.18133216497629      0.03962047260394
  N   2.74604179541126      2.25510256795401     -0.85468754579690
  N   2.24439821813354      1.84501265533233     -2.07655800434705
  C   1.98652645035964      2.78392876180017     -2.95133688570206
  N   1.59333167342010      2.33848244667645     -4.22524808394078
  C   2.13930519534812      4.16799811701066     -2.71101160161468
  C   1.84430228165025      5.14514695405475     -3.81073460439045
  C   0.34522995935313      5.19639052158206     -3.83303936230594
  O   -0.34984914387495      4.68380921278195     -4.69156840255416
  C   2.53441832899611      4.53427631253604     -1.40635574022491
  Cl  2.60997200913305      6.21111430532680     -0.94469410419348
  C   2.83266681577371      3.56725625549189     -0.40280487920745
  N   3.18981117095222      3.74997309920106      0.83886120561599
  C   0.71266017817316      0.45558423739291      0.39690589002335
  O   0.08587909923360     -0.54471372056869      0.65490585223508
  H   3.35049151703248      0.18096605597250      2.59852488608018
  H   2.72523122063745     -1.11410561941990      1.56214756863396
  H   1.69293373526604     -0.41950872023147      2.80443811129904
  H   1.79154940249181      1.81319391963936      1.57974854634834
  H   3.28781289431040      0.30515097441956     -0.57624772455659
  H   3.97643690062850      1.46157878727676      0.59593177825199
  H   1.37814729736107      1.35156154896552     -4.18867072122815
  H   0.82505482275548      2.86749703865470     -4.62330645492969
  H   2.21288851458450      4.79351000678139     -4.77603762092116
  H   2.26354414304223      6.12426727092071     -3.57817142862057
  H   -0.11491630444879      5.65950920056194     -2.94084839268315
  H   3.24889172568038      4.74533945202557      1.02150988385416
  H   0.35975432116987      1.14895250723795     -0.38659313251560
