28
Coordinates from ORCA-job 23693optt
  C   2.05195077385842     -1.40724708345966      0.09772145860419
  C   2.27845734682694      0.07682772698916     -0.11930380815311
  O   3.22004189238801      0.50229422911012      0.86615183386024
  C   2.78382302304361      0.38344290787316     -1.50103901474530
  C   1.85069588462395      0.77513022265352     -2.61085639174058
  C   2.79870579425438      1.79388304963044     -2.03627692067465
  C   2.18765158123938      2.91490412802401     -1.20733648471213
  C   3.99521709117312      2.20611121590925     -2.82385231146061
  C   3.90417737397686      3.10607302684028     -3.92104632099448
  Cl  2.34521551174248      3.50250645967514     -4.60174663566854
  C   5.01451346064040      3.69761786481485     -4.55688956157932
  O   5.03766569521394      4.48645984767106     -5.48606000898007
  O   6.27375909939636      3.33317246387821     -4.04559652161207
  C   6.38077262823716      2.42854040382571     -3.01945492619600
  C   5.29616656808917      1.88716486105131     -2.40172929283237
  H   1.71334759283258     -1.59603871913011      1.11746260355556
  H   2.98481350757643     -1.95016113487262     -0.06250747992840
  H   1.30217135674274     -1.78019986574207     -0.60106961354613
  H   1.32934804919489      0.60072364947139      0.04618722233779
  H   3.62914219285231      1.31071214941256      0.53775756403161
  H   3.63778380949883     -0.22095752463230     -1.79046675490382
  H   0.79950682162010      0.88409249806340     -2.36695020022928
  H   2.05718647724465      0.40938652495955     -3.60653000339987
  H   1.28624053641093      2.60446343613214     -0.67500318392760
  H   1.92330217105505      3.74106048723336     -1.86809367344418
  H   2.91027276479820      3.29683068590668     -0.48076514520337
  H   7.40853233112293      2.20939361539357     -2.77261605144755
  H   5.45553866434607      1.20281287331783     -1.57609037700989
