30
Coordinates from ORCA-job 23692optt
  C   0.90578371654969      0.30060605465822      1.06090528896120
  C   2.38123363223663      0.41331332632755      0.74215032139548
  O   3.03457931856810     -0.70049330246283      1.29770762147817
  C   4.44750471651340     -0.69194231162252      1.13263574688020
  C   4.88610233134877     -2.14299429731711      1.23759052928141
  C   6.38627533891341     -2.36477266208812      1.12108297028181
  O   7.11476686474450     -1.69892056265904      2.14348332271249
  C   7.53349473428905     -0.41554631263014      1.78261097450604
  N   8.83575730291572     -0.32443752305815      1.55846988779290
  C   9.40890318189387      0.80730597887532      1.11178502571733
  N   10.66297118197976      1.06466703987311      1.02813579625190
  S   8.38141965423197      2.13921559496982      0.41548759844944
  C   6.84245307409603      1.79400433476735      1.14655291158591
  Cl  5.86046833131193      3.22041278755517      1.46282210321361
  C   6.54085059880792      0.56071969929504      1.72054785558067
  C   5.13560034297591      0.21791041550094      2.16867608783368
  O   5.06470374960937     -0.33757503554049      3.47171879734742
  H   0.35553887528790      1.13855116851813      0.63069553905573
  H   0.75579334994500      0.29831634033799      2.14052453018047
  H   0.50280794097859     -0.62905136516646      0.65747194901377
  H   2.78549231540536      1.35009144778923      1.14312562172716
  H   2.54192922487461      0.43313627528314     -0.34496414431018
  H   4.68885897857878     -0.29309950638278      0.13726833884674
  H   4.37995981093685     -2.71481095912257      0.45521379739070
  H   4.53463605463848     -2.52530717808141      2.19917722546110
  H   6.76135622755411     -2.03654334752015      0.14613751783241
  H   6.60509650310409     -3.42978495609853      1.22729051586740
  H   11.16211505485139      0.24663129240796      1.37940065250836
  H   4.56357875781071      1.14197872008053      2.21913760219295
  H   5.78796883504794     -0.97458115648920      3.53415801496369
