28
Coordinates from ORCA-job 23696optt
  C   5.35762440780574      1.23560938954341     -0.56219722536035
  C   4.08537175018346      0.67240819334190      0.05359786789819
  C   3.40535096933152      1.63055987904685      1.03498688133365
  C   2.94612291468270      2.90083082535286      0.37684411823798
  N   2.52822372245534      2.80459902069895     -0.89743163384709
  C   2.08959795600325      3.86209849791871     -1.54832328492689
  C   1.61710462369438      3.62992604014129     -2.95286617284537
  C   2.04650901225920      5.14434491397218     -0.90492827460277
  N   2.45834328065046      5.22958215186599      0.37943520117453
  C   2.87739080593942      4.15087271073310      0.97130964706988
  Cl  3.38898928366571      4.33115842052480      2.65208307453460
  C   1.60440791853928      6.34051707947200     -1.59631909848326
  O   1.53064582955007      6.39984258717684     -2.86000369882124
  C   1.18228891828387      7.54614397868047     -0.85569182314014
  O   1.03460662555225      7.72400315292174      0.33860788812847
  C   3.13097385551792      0.16079156971433     -1.00532185877892
  O   3.47611221755571     -0.25613195975559     -2.07893722936742
  H   6.07719799268987      1.49168444486546      0.21693910944741
  H   5.12695951830723      2.13592039392519     -1.13202830727598
  H   5.80702096584941      0.51230932514468     -1.24089526704402
  H   4.33831628954941     -0.23233778952839      0.62554790323270
  H   4.09155163793028      1.85865139903005      1.85027903314001
  H   2.54537008755456      1.12396517805192      1.49257314419929
  H   1.61486971474260      2.55756729972123     -3.14405160118632
  H   2.26020740876402      4.14193872828027     -3.66705412109928
  H   0.62338879566074      4.05299066209879     -3.09976657090365
  H   0.94231452464398      8.35400025047863     -1.58005267559073
  H   2.07013897263754      0.10615365658227     -0.69433502512327
