29
Coordinates from ORCA-job 23700optt
  Cl  0.55119996375750      0.30545820099307      1.19172374725632
  C   1.69971555945935      1.57249558369607      0.80719294917853
  C   2.10619939376316      1.81057248828920     -0.43880409618289
  N   1.52957513887759      1.18520192837767     -1.56770089864463
  C   0.67757443450577      1.85675117645161     -2.20023427605624
  O   0.19286014297446      3.10475902489457     -1.89909052803959
  C   -0.59805126885260      3.22817160930822     -0.71044802302738
  C   -0.56772544016062      4.65313858434433     -0.16717013208069
  C   -1.11305512571949      4.67715591306011      1.26464934718855
  N   0.04725547731662      4.35927546920894      2.10403853208428
  C   1.29297698760869      4.81108337016199      1.43631208487375
  C   0.82436656003598      5.25670252624751      0.02674455858265
  C   2.38973910378795      3.72559413784638      1.39933195218037
  N   2.04559184098817      2.40650948509949      1.86793122189728
  N   3.24523626760763      3.79826058015020      0.34547377189134
  C   3.16619981753738      2.86792621437888     -0.62148735736621
  N   3.86928829998022      2.79504818247053     -1.71412558885968
  H   0.27026321348911      1.46841898909305     -3.13215306212768
  H   -0.25663132377059      2.53400772809274      0.04993547951837
  H   -1.63315375422465      2.96666894648487     -0.96237254061006
  H   -1.17096146296334      5.28494157770544     -0.82264318798773
  H   -1.91230599781132      3.94550250474272      1.42281273206004
  H   -1.52320426472082      5.67455119976371      1.47396569736643
  H   -0.04833185792286      4.75004776076343      3.03011964366716
  H   1.70078475525270      5.69037203190257      1.94918386083316
  H   0.73186005081893      6.34576584914511     -0.00095424847934
  H   1.53558440053824      4.95979818584128     -0.73942586079598
  H   1.31161705947128      2.42686865585160      2.56326795215580
  H   4.52553202837555      3.57595209563465     -1.69207373047593
