27
Coordinates from ORCA-job 23718optt
  C   0.98097685311776     -0.08150435013244     -0.19169597091541
  C   2.50553907073379     -0.12491487398574     -0.16350160346729
  C   3.01686371428797     -1.39173630651135     -0.84116710624500
  C   3.06754627319335      1.16322570059594     -0.79120933119895
  O   2.61345707420107      2.27993151801686     -0.06291620799830
  C   4.58425691004554      1.18746277132905     -0.82036701876532
  N   5.19355101615317      1.73928201843993      0.16466769034520
  C   6.58253241581702      1.70998212028925      0.11454435386731
  C   7.53627080609654      2.23754025216186      0.97001501491426
  N   8.79186515688619      1.98452543849579      0.51443945020932
  C   8.66066471410858      1.28795674714369     -0.63001340183094
  C   7.31317869262912      1.07635046630101     -0.94666005684836
  C   6.59333598563780      0.40394892317356     -1.96325309559044
  Cl  7.18845755189493      0.42587620956544     -3.66492784776117
  N   5.20493627255268      0.60568504387829     -1.89405770989668
  H   0.55642034284147     -0.94025530460202      0.33273509182153
  H   0.62320159203221     -0.11246765225548     -1.22560216985789
  H   0.61003310113176      0.83221416376511      0.27032385287647
  H   2.84643551010272     -0.11637437440535      0.87651542273712
  H   2.76968441723226     -1.38599313954786     -1.90853251055993
  H   2.53969930960012     -2.27129494528904     -0.40444345160003
  H   4.09616223510536     -1.50417382760991     -0.74111791171900
  H   2.68736754899350      1.24308407606504     -1.82032143444727
  H   3.39053168655167      2.55549652501894      0.45699209111036
  H   7.36562995556920      2.79219321501144      1.88228777608337
  H   9.52376624883560      0.97128141213084     -1.19936306912054
  H   4.63163554464853      0.13167817295714     -2.57337084614239
