26
Coordinates from ORCA-job 23716optt
  C   3.25052934076625      1.48449682619823      0.38430238655553
  C   2.59686506977721      0.14374666225256      0.07527768045675
  C   2.93340872856835     -0.91538107426411      1.10642509892035
  C   2.31709035708031     -2.27033746320241      0.82747660364168
  C   2.58556926380822     -3.22649316958382      1.97732156272716
  O   2.59974741754104     -4.44281894294316      1.78925918623323
  C   2.81190567457042     -2.61356617067248      3.25263003582051
  C   2.72925815761366     -1.23069438928358      3.43706454660359
  O   2.46571738851887     -0.43171793380038      2.35842016609026
  C   2.86389254262977     -0.59565413569224      4.66847345303886
  Cl  2.76635534507601      1.13655168045566      4.61725829191648
  C   3.08340845051455     -1.23727487630475      5.91281775770509
  C   3.13517189700944     -0.56660769867646      7.20144862566147
  O   2.95361287190381      0.61552282092924      7.44867163851165
  C   3.29023310685437     -2.67058732023226      6.00945501610220
  O   3.55028449381897     -3.28471771178046      7.03172356576678
  S   3.16746112348422     -3.70687491244374      4.55892105177896
  H   2.99384338438184      2.23278316257853     -0.36685849928685
  H   4.33815535444962      1.38790973156169      0.40698720249595
  H   2.92943478713906      1.84454470235277      1.36142533032760
  H   2.91524658261818     -0.22515688927341     -0.90361675588912
  H   1.50908188357651      0.25197346930102      0.04221477074819
  H   4.02545128377852     -1.02633287547301      1.17696673408181
  H   2.71992991835547     -2.71199290113379     -0.08527139495589
  H   1.23423622837467     -2.16152299699132      0.70403464711048
  H   3.35810934779058     -1.26679759387825      8.02017129783722
