29
Coordinates from ORCA-job 23717optt
  C   1.19467949156372     -0.54631628159679      0.40701459316666
  C   2.52558599052170      0.15223163847964      0.13665477449118
  C   2.87203816870241      1.13987565213938      1.22360952226801
  N   1.95647191034382      2.10867317932103      1.41555371638108
  C   2.18870584948769      3.05712581256317      2.34146920786645
  O   1.40407788993030      3.94415281791333      2.66108545631982
  N   3.48116894517262      3.06603801105159      2.97251063458484
  C   3.78367974681352      4.16168306726748      3.82953034219420
  C   5.07075946847057      4.88919352253393      3.72377274061501
  C   6.14116990302791      4.50283114869624      2.73784179540514
  C   3.81193406140261      5.55286148312760      3.21554673006287
  C   3.15305264975663      6.60428953881570      3.99598840997736
  O   3.35733284027971      6.81905750152112      5.16837258679599
  C   4.37118696297517      2.01357060812846      2.86447978489886
  Cl  5.10942819584488      1.45492392257633      4.47796217726846
  C   4.03450112339334      1.00237419923010      1.94875132876578
  H   0.92389581698288     -1.21787215589564     -0.41077226270193
  H   0.41189846567520      0.20106578464216      0.53040646440425
  H   1.24970491759980     -1.12958773534627      1.32852358327734
  H   2.45402793144023      0.69881182933814     -0.80921642103261
  H   3.33009113074887     -0.57949075148068      0.03504897353022
  H   3.32506525319653      4.13204294553295      4.81201824396624
  H   5.41680729684266      5.29224984685270      4.66883347452399
  H   5.70264887701697      4.15215721319728      1.80425672241203
  H   6.75229372557231      3.69248641816928      3.13759902534369
  H   6.78338473693079      5.36015942807691      2.52377998466236
  H   3.63902199929574      5.56597700558432      2.14807364077819
  H   2.40588879689409      7.20488122981694      3.44537546690901
  H   4.68549785411725      0.14855311974352      1.82492930286546
