27
Coordinates from ORCA-job 23725optt
  C   0.83891589190166      1.42141204291515      1.12236314149815
  C   2.30243310969935      1.74544952936357      1.32665483415476
  O   3.00649006028426      0.52813546753266      1.37743288636888
  C   4.35971845701921      0.59514674720631      1.60105897138077
  C   5.06533402499551      1.76064875551122      1.72407015523467
  C   6.47537566267692      1.73356429330348      1.96119134099654
  N   7.02910403603935      2.93922285179841      2.06791189094436
  O   8.38332665259273      3.00314009858214      2.29619689090130
  C   9.11512094924517      1.87228422406789      2.38740683535460
  C   10.48322827469564      1.81636206571011      2.59569594527674
  C   10.80470589788564      0.43779328476010      2.62559442850624
  C   9.65535018312390     -0.33352630065340      2.43987837730317
  C   8.56493050635228      0.55459516400464      2.28396665517212
  C   7.16466001349158      0.46843120351122      2.05995791401048
  C   6.36605512447280     -0.67630066667221      1.92075397606448
  Cl  7.09789392923084     -2.25799475251725      2.03151633823346
  C   5.00511157572216     -0.64884355181155      1.70079324806233
  H   0.24945817343874      2.33843301642525      1.08317679126495
  H   0.47117445615295      0.80390700849709      1.94211614842631
  H   0.69853359711546      0.87403731171182      0.19027724619920
  H   2.45316024744354      2.30136726338910      2.25903822983490
  H   2.68251167355636      2.36560482276790      0.50669899313405
  H   4.60831731363008      2.73605908150551      1.65026490637863
  H   11.15135289485700      2.65535072494141      2.70782228052301
  H   11.79954180604235      0.03795094464824      2.76961370468392
  H   9.61740807591795     -1.40834032964816      2.41728807600258
  H   4.43478741241647     -1.56089030085066      1.60725979408939
