27
Coordinates from ORCA-job 23721optt
  C   1.07424804300031     -0.17437918055739     -0.05687194292595
  C   2.57403779883079     -0.10876366772227     -0.03285907682119
  N   3.15480931727364      1.08610391502382     -0.11776923946192
  C   4.47766541706161      1.18305335172894     -0.09713525655473
  C   5.35112704827899      0.07851706706009      0.02071728995013
  C   4.72102776267771     -1.17807939930494      0.07583258771818
  C   3.34530678803954     -1.27871847138313      0.05285319978486
  N   2.70653114570856     -2.52988230134575      0.17107783927451
  C   6.79677519691568      0.18619169231862      0.00322867246902
  C   7.52416012525115      1.33484209179387      0.40416129317626
  N   6.88377853942894      2.39554879101621      1.10916124216378
  C   8.90899130066682      1.52897249741714      0.21035653999798
  N   9.65029408680317      2.55446981993551      0.52246454910277
  S   9.88288304508805      0.22772679578215     -0.54503609789530
  C   8.67620455354693     -1.03175184491290     -0.61588181367642
  Cl  9.36304247235550     -2.57432590374654     -1.13639073391552
  N   7.43980068542353     -0.96144707204373     -0.40123664860821
  H   0.67641000586276      0.83803665320200     -0.05913786229707
  H   0.68141798460384     -0.71154650970309      0.81160790301709
  H   0.69898096147833     -0.68774141232353     -0.95074984961676
  H   4.88091225073807      2.18060240736452     -0.22062123317111
  H   5.33597684737900     -2.06871436630420      0.12714769021508
  H   3.31741121815806     -3.29784828319617     -0.06798223163773
  H   1.84212958999700     -2.59275155654749     -0.34739112502952
  H   6.01847305016503      2.08151997347479      1.52993686074632
  H   7.49368916117503      2.72829842429820      1.84996229591823
  H   9.06291560409191      3.33106648867528      0.81655514807721
