27
Coordinates from ORCA-job 23720optt
  C   1.07531195094590     -0.52387214339237      0.29228694100519
  C   2.58668019689448     -0.66051378201993      0.23103866392681
  N   2.98921205687757     -1.24103367160852     -1.04660410702952
  C   4.35535055320995     -1.22260605942255     -1.38206210402205
  C   5.05025675744955      0.00486047102460     -1.54532305022149
  C   4.32904966093709      1.23192873279859     -1.70486810664169
  O   4.75767095203164      2.36946877266471     -1.84594826094321
  C   6.49470961212325     -0.08544363045660     -1.63934802081763
  O   7.00842137678107     -1.36825876110890     -1.83826242810592
  C   6.14991296991244     -2.41971536897474     -2.03375415781323
  Cl  7.04047862782797     -3.93218578131487     -1.89516770950590
  N   4.89915168357723     -2.41000430592125     -1.57818340671330
  N   7.32187573127582      0.86842553160695     -1.55161686223784
  C   8.72837013748132      0.57237129549143     -1.73184846053431
  C   9.53256828860357      1.86216575352141     -1.69390803866703
  H   0.75772757369419     -0.11287731923738      1.25197999425547
  H   0.59253117502999     -1.49591042483854      0.16504668749805
  H   0.72694360504272      0.13209755329352     -0.50631035374150
  H   2.94578112901944     -1.27036006137364      1.07184130320008
  H   3.05536410883238      0.31654320941810      0.33006484129944
  H   2.68343149241789     -2.20489835083799     -1.11194571155816
  H   3.23130672890058      1.07275341976958     -1.73449346873903
  H   8.89937804137016      0.05283285930561     -2.68277471516060
  H   9.08468419863537     -0.11222859724754     -0.95197657466681
  H   9.18914963035913      2.54036427293836     -2.47603347606085
  H   10.59857868497669      1.66855162725040     -1.83640924294139
  H   9.39110307579251      2.36554475867157     -0.73642017506357
