26
Coordinates from ORCA-job 23733optt
  C   1.20994605597233     -0.17784716874863      0.69818026998859
  C   2.56240553905569     -0.00137644226964      0.09244636086237
  C   3.21857709453845      1.13872549120927     -0.15420224747682
  Cl  2.48528405740039      2.69775203071346      0.17374539344968
  N   4.47031574681566      1.25574493288024     -0.66372849746997
  C   5.41056516275259      0.20067143797935     -0.73646956272239
  C   6.68541227832208      0.57547276164298     -1.09981614232646
  C   7.85935106535109      0.94702159972877     -1.23626474460628
  C   5.00312970527847     -1.09972485835150     -0.35022803713759
  C   5.96770544117234     -2.18524398012871     -0.06843496127729
  C   5.84550475427292     -3.03139197860596      1.22762723392939
  C   5.68357329826565     -4.22222145564367      0.28168625325641
  O   5.81039059981474     -3.39326195152513     -0.87764753109859
  S   3.34600202434824     -1.48122237164610     -0.47697876474381
  O   3.00748772255585     -2.54159099501377      0.45981923043174
  O   2.87399202812807     -1.66866088325679     -1.83606156696333
  H   0.81493603545624      0.77209135702322      1.05347918703837
  H   1.26367119038323     -0.88027363366289      1.53158158468335
  H   0.51303197136890     -0.59669692221414     -0.03272987949765
  H   4.81019823882722      2.17583111575791     -0.88331327515331
  H   8.62367153581809      1.16019923124765     -1.95886631542087
  H   6.96968854992582     -1.77194739462871     -0.20531946057775
  H   4.97075980523354     -2.80323100903980      1.82695839088094
  H   6.74794482184617     -3.03401200925012      1.83727346060384
  H   4.70554253149224     -4.70666031972003      0.31744770722269
  H   6.47591274560379     -4.97614658447721      0.32781591412475
