30
Coordinates from ORCA-job 23736optt
  C   2.35999384131920      0.19688027867983     -1.50042257461871
  C   2.33399076754089     -0.00725502535965      0.01168117417969
  C   2.98624706179110      1.09854073506042      0.87804503506781
  C   2.51881138945611      2.48783845171334      0.39691635489388
  C   1.00900089063285      2.70501263757887      0.46177302973207
  N   2.55491715366084      0.93562381156002      2.28446331780490
  C   3.19526126557505     -0.14454900161709      3.01819435170360
  C   4.51810475645629      1.03801078109457      0.80508337298628
  C   5.37305266969036      1.89696114491349      1.54466366508929
  Cl  4.85932322229263      3.00520446254091      2.77813175470343
  C   6.77913848154516      1.79782472618918      1.35267431770133
  O   7.67714239384783      2.41971904375034      1.92173549047500
  N   7.10964586419316      0.87663146597394      0.36961574790107
  N   6.28469585971569     -0.07293300398168     -0.21528760541716
  N   5.00319040402065      0.09641116652227      0.00770346567128
  H   1.95214932879988     -0.68182504142678     -2.00589962602118
  H   3.38199365655062      0.34222896261742     -1.84547092271679
  H   1.75962300588309      1.05788104574401     -1.80247016548275
  H   2.81723823016849     -0.95438162444838      0.24699578386357
  H   1.28979800775372     -0.08667248541120      0.33538654580554
  H   2.87027103620232      2.62639417818883     -0.62800124559483
  H   3.01157780563618      3.24130220370480      1.00799592324627
  H   0.45987320469272      1.97872797778329     -0.14162520251239
  H   0.75053231518316      3.70030217192494      0.09498035922648
  H   0.64905866595263      2.63699168371079      1.49021611900343
  H   1.55266668981212      0.79280972093113      2.28968619531931
  H   4.22857092058236      0.12637978873028      3.23776046332563
  H   3.20477663323395     -1.10825547302198      2.49122707489636
  H   2.67512080551783     -0.27496608491283      3.96870313680683
  H   8.09323367229302      0.68816130126689      0.26554466296076
