24
Coordinates from ORCA-job 23749optt
  Cl  1.06198602611869     -0.13226444942449     -0.54053685078990
  C   2.81405813094546     -0.04606973672322     -0.24985682230788
  N   3.33286325775031     -1.19808030084211      0.07900611545033
  C   4.66378900217814     -1.22875065150571      0.40704227883653
  N   5.30205565493859     -2.27017126668038      0.77527291654473
  O   5.40718207859542     -0.08043670789970      0.34052142412998
  C   4.86160258084087      1.12913222708649     -0.03306217013266
  C   3.45255075884773      1.19419136175434     -0.32889563206417
  C   2.70914988017369      2.40432852594752     -0.64515726524577
  C   2.99744721205456      3.68643906132484     -0.33967959370644
  C   4.21549247838766      3.96669388307097      0.43942173003612
  C   5.07111571759678      5.17514307887062      0.63309483032694
  N   5.46744903368461      4.15377740999075     -0.29771730411552
  C   6.32717438811287      3.06977727080230     -0.05154628212195
  N   7.37819237276872      3.03963342231786      0.64792395965768
  N   5.81094633516732      1.93319471829815     -0.73921419151054
  H   4.63270663388636     -3.03442121795463      0.77139942994994
  H   1.78612221933991      2.23126017968838     -1.18473285414234
  H   2.35538346792851      4.48890120942150     -0.68083097414180
  H   4.33618231289157      3.26657995664835      1.26375257335652
  H   5.58739692241119      5.25267838850131      1.58686007515958
  H   4.81470541844361      6.11919282071898      0.16719356401088
  H   7.52180654205736      3.95088698054433      1.08379230086956
  H   5.37464157487995      2.27438383604348     -1.59105125804983
