32
Coordinates from ORCA-job 23747optt
  Cl  0.67075617698422      0.09907461319213      0.54734370613790
  C   2.40419484621926      0.10880031853875      0.28913386292055
  C   2.94218535874582     -1.00584171069175     -0.38258695230089
  C   4.31366356592124     -1.11722756605163     -0.60964518438850
  C   5.25166227363647     -0.18685345436248     -0.25664888963525
  S   4.88244966951246      1.32085625912865      0.52217277809490
  C   3.08252278410528      1.23476417142513      0.79725052103349
  N   2.54329938638735      2.23284915113387      1.42634211554542
  C   6.63135804635378     -0.74694972140987     -0.49910958233939
  N   6.30430410761661     -1.68521838683491     -1.58378525526173
  C   5.08314974686453     -2.33237314337056     -1.08761306465343
  C   5.37256478450268     -3.34548129338030      0.08839352480257
  C   5.16610384269925     -2.77933638617091      1.50160073757654
  C   6.23606845148221     -1.73381469492813      1.89246728768177
  C   7.24338402137334     -1.47367384319629      0.76481990840423
  C   7.87425807732238     -2.82699856019824      0.39493570179224
  C   6.80668368613353     -3.89671687451519      0.01713869525984
  H   2.26796227081461     -1.79169559697550     -0.69620982616580
  H   3.24834935129734      2.91542193148830      1.69141089550089
  H   7.35134706756277     -0.00601733826561     -0.85893745916758
  H   7.04798793433160     -2.35022345513402     -1.74529160028941
  H   4.58608253359767     -2.86647043787915     -1.90117328566261
  H   4.67632348505514     -4.18019969440823     -0.03428336622230
  H   5.20595630967993     -3.62364305654850      2.19721493533694
  H   4.16942678164116     -2.34760839045758      1.58330610267486
  H   6.80211378135995     -2.09020147053030      2.75935984316198
  H   5.76017905200879     -0.80035132098445      2.18974922946330
  H   8.02946830734933     -0.82496718996670      1.16212946866434
  H   8.44727243066690     -3.17578302114843      1.25837427258953
  H   8.59971530884568     -2.70324473124979     -0.41440587518043
  H   6.87824282533093     -4.74133568820873      0.70756717814913
  H   7.00696373459767     -4.30453941803956     -0.97802042352308
