32
Coordinates from ORCA-job 23744opt
  C   1.18066950807492     -0.41474358438677     -0.27895582926277
  C   2.65347731733219     -0.13615171650979     -0.01894728700028
  N   2.91770795942647      0.69472407093259      1.14619565325342
  C   2.49175201062655      0.07400389890277      2.38639690360600
  C   1.05048310111856      0.21751716192734      2.64061233475711
  N   -0.06976312785598      0.31228591680990      2.86801187192904
  C   4.37814057665398      0.99783343419567      1.21052954882304
  C   4.79514333302061      1.90301496361751      2.31336354182750
  C   4.68162820062209      3.32103849182018      2.21170001132105
  C   4.06688056395031      3.93422867713052      0.98916893065160
  C   5.18398913738586      4.04905987982343      3.27130797558340
  Cl  5.13036630161806      5.81075770893152      3.24816395479624
  N   5.74807170030157      3.58235758814787      4.36991168822898
  N   5.81385436702634      2.20939675982523      4.44415747137058
  C   6.37303433538673      1.73645219315431      5.68206339750936
  C   5.35864621560014      1.31504560867293      3.47774302046950
  O   5.45253045918477      0.08895976296820      3.68926280659035
  H   1.06403363791493     -0.87469789029362     -1.26219257631634
  H   0.60514481616737      0.51118477919531     -0.25320058931097
  H   0.75161228189941     -1.09409981707413      0.45712454658777
  H   3.07202985109350      0.39278381175426     -0.87871416331056
  H   3.20090404347076     -1.09387199278551      0.05774253750590
  H   3.01441797597213      0.56082307953118      3.21132363820831
  H   2.74842236761353     -0.99621461214805      2.44008071893442
  H   4.61586607974243      1.44133749376708      0.23963255750016
  H   4.93647271652474      0.05500076378080      1.30095229684076
  H   3.18040008978927      3.36851487104280      0.69275793108506
  H   4.76255220990716      3.91648441418668      0.14164881537844
  H   3.78270849422919      4.96993340036707      1.15991792119083
  H   7.37081747257656      2.16057014889530      5.82113365275823
  H   6.42346330055425      0.65293800386840      5.64032555159288
  H   5.74954270307120      2.05253272994891      6.52378116690074
