30
Coordinates from ORCA-job 23743optt
  C   0.79622376395559      0.80569879648116      1.64613575132671
  C   2.29443826863549      0.51409027733049      1.63225828498119
  C   2.66665801301503     -0.86774260802994      1.06266374655879
  C   2.31849228165968     -0.93999005259288     -0.42487712414744
  N   4.07128631521639     -1.13894326281730      1.18236681217178
  C   4.73389128142051     -1.23434676255883      2.29965895051252
  N   4.12776696699256     -1.30948987423947      3.62973439579327
  C   2.82181913832404     -1.85814787914634      3.85922228775616
  C   2.73279926433314     -3.36244651772788      3.99366146679965
  C   2.91070925100108     -2.48487140691008      5.20134273930897
  O   4.20289457311132     -2.29303383605254      5.69856811128636
  C   4.97077829756824     -1.80721039375318      4.65919868076817
  N   6.23798990599728     -1.81454774565052      4.69919022500742
  C   6.87462096388653     -1.40314918396228      3.55769817595185
  C   6.14043084933537     -1.21975415261726      2.37593040087442
  Cl  7.03227618859878     -0.92096240671785      0.91209187563798
  H   0.57857454537829      1.75284978982793      2.14415904319170
  H   0.25047206703787      0.01955495145508      2.17689701534766
  H   0.38608619885079      0.86197909286064      0.63657491595722
  H   2.69535956648501      0.59684122718467      2.64535361916090
  H   2.82365470726890      1.26510051682759      1.03829642744183
  H   2.03166520416833     -1.62000750187719      1.55941764005453
  H   2.87124412938303     -0.16671274060373     -0.96364705433006
  H   1.24855658484823     -0.81279599944339     -0.60731002961640
  H   2.63086702021693     -1.90688385560919     -0.81951541286411
  H   1.96473231732613     -1.27650762510545      3.55916026742639
  H   3.59607774674319     -3.92206749400060      3.65402545867521
  H   1.76814934336629     -3.83179950317869      3.85352416961510
  H   2.14325531408891     -2.39598910261601      5.95528779231822
  H   7.95322993178696     -1.37971474675693      3.56193136703393
