26
Coordinates from ORCA-job 23745optt
  Cl  1.29610502414694     -0.73386964054843      0.21553898065976
  C   3.02927207474177     -0.37366006478693      0.22140044263847
  C   3.41732385280412      0.98938550300312      0.23898551819367
  S   4.94910869975447      1.33040926731541     -0.28418564729149
  O   5.20640536438456      1.17319307972775     -1.69947017742665
  O   5.55262937578444      2.46428057118209      0.37786306503524
  N   5.79639774994264     -0.08069818721865      0.37627255183479
  C   7.15864187064482     -0.34151927507760      0.19381408012460
  C   7.31691516803484     -1.66526443665437      0.02478431853864
  N   6.06655992802297     -2.26365571955162      0.01439414521859
  C   5.76689190965537     -3.66905673275314     -0.00493720645748
  C   5.67317677035577     -4.27045634162317      1.37663933034667
  C   4.40134516131757     -4.10294501486259      2.14477855508823
  C   4.77707996780653     -5.45173921817722      1.60005704639744
  C   5.10524082722307     -1.27512387448928      0.16563975364067
  N   3.81960283632980     -1.45030477187303      0.08489305380158
  H   2.96131782634498      1.73694016900182      0.87215736604862
  H   7.88349727932754      0.45115543289532      0.23691799450797
  H   8.21503864112452     -2.25027073976878     -0.07953379283714
  H   6.53726625057133     -4.17530144851606     -0.59318074227519
  H   4.80929313634242     -3.79073906417608     -0.51908161695254
  H   6.59483030264865     -4.24100187922953      1.94685318792908
  H   3.61125308585645     -3.55266794046435      1.65123952766155
  H   4.47258317424922     -3.95216805922833      3.21263952680021
  H   4.21926690957302     -5.82122119287119      0.74934157090469
  H   5.10095681301201     -6.21470042125511      2.29417916787004
