26
Coordinates from ORCA-job 23752optt
  C   3.83448703672806     -0.06038751923960      1.18103883099746
  C   2.73049978298597     -0.02968714630803      0.12673291710808
  N   1.46229892807789      0.31918273042429      0.78458699862592
  C   3.03656909627069      0.99641710875543     -0.93247439075973
  C   3.67197019944217      0.77399322717391     -2.09933554169130
  Cl  4.16915461727668     -0.83535631388627     -2.52727469524256
  C   3.99913419620884      1.83427124371083     -3.07115632710864
  O   4.48074959493031      1.53867444688000     -4.18171223910764
  C   3.71297941339761      3.17702242958221     -2.61658459121547
  C   3.01502892351875      3.38483287985902     -1.38486100824921
  N   2.70037988055779      2.29062559713019     -0.60711510281317
  C   2.64446630313572      4.65360858238744     -0.97508450210466
  Cl  1.77736702836552      4.84653142609711      0.53362530220093
  C   2.93514053461910      5.80494113845566     -1.73931883063810
  C   3.64045956599870      5.63187190261179     -2.91004623007030
  C   4.03443508347729      4.36982986898751     -3.34322001125077
  Cl  5.01089355640265      4.33873628882627     -4.78754689363183
  H   3.60488680370549     -0.79164962487845      1.96107462489769
  H   3.93515965266403      0.92276775056496      1.64306063394323
  H   4.78171654740167     -0.33285359347336      0.71647937592350
  H   2.68987564671380     -1.00435434209621     -0.36346333674617
  H   1.27015540329381     -0.32967402413446      1.53800012766670
  H   0.69582755438026      0.26047959262677      0.12296957478925
  H   2.14367569138830      2.42407664734813      0.22362558237373
  H   2.61476190141836      6.77956285872175     -1.40230811518304
  H   3.90592705764045      6.48953684387304     -3.51469215271387
