25
Coordinates from ORCA-job 23758optt
  C   1.14751150140237     -0.09539298061251      0.24513899880957
  C   2.64544281379370     -0.02090429266917      0.13558159724161
  C   3.26707197387385      1.25980180515198      0.03754102474878
  C   2.49955241033444      2.43331596795600      0.01579690041204
  C   1.80082058091859      3.42660758921072      0.00148463778314
  C   1.00511831345578      4.63982249168893     -0.06870035270946
  O   0.49781762890642      4.92046664142442     -1.38050971685175
  C   4.69122273945376      1.24788635831435     -0.04467950732314
  Cl  5.47746588321000      2.80881645773701     -0.14758849694028
  C   5.42239344640075      0.09303907182506     -0.04276840238093
  C   6.92094625308878      0.06104504026245     -0.12006147068893
  C   4.68047609322607     -1.13537695906637      0.04192754981944
  C   5.27647105544243     -2.43637474815861      0.03505735558529
  O   6.47575581936558     -2.73661770155310     -0.05983246606163
  N   3.30980235934084     -1.14086138420690      0.13711460325008
  H   0.79889193243165      0.43768385870312      1.13295463857554
  H   0.84682751904883     -1.13908556154530      0.30155259757144
  H   0.66989690200165      0.38182915821787     -0.61335387825974
  H   1.60936750011686      5.48968551169974      0.26615998166828
  H   0.13567029377112      4.57332712945350      0.58996902573962
  H   1.04455077822960      4.41962376235250     -1.99328517039110
  H   7.33644840086410      1.06455696031871     -0.14888302770830
  H   7.24299084714471     -0.49484685606962     -1.00101609180791
  H   7.33068135310856     -0.48351065595049      0.73070114333083
  H   4.51380560106947     -3.23153666448432      0.12869852658750
