29
Coordinates from ORCA-job 23756optt
  C   1.59461852696944      0.02374602494208     -0.77109840276770
  C   3.04096143029120     -0.04059947234264     -0.37084531213461
  C   4.07314332526474      0.28452482393280     -1.24788507775657
  C   5.38576111630064      0.17447345009960     -0.83197127034084
  C   5.70427367204800     -0.30234226408241      0.48771571207742
  C   4.55106917385745     -0.52888904939806      1.26478872167055
  Cl  4.75667345953535     -1.05158877291574      2.93125161123889
  N   3.30101878155297     -0.42000576504849      0.88118733860253
  C   7.10374490134257     -0.46944807244004      0.91484305873431
  C   7.65180702522315      0.44221850542333      1.97310485981622
  N   7.88158526562101      1.84442106424835      1.52620924611495
  C   7.95954880781326     -1.22116325887291      0.04275500062217
  C   8.58670967965539     -0.31583603467943     -0.97604441178959
  O   9.47953164396247      0.49669268055594     -0.83998777601563
  C   7.48480059180334     -0.28385395603786     -2.03091091519101
  C   6.58128140538632      0.65144872792212     -1.59588490453470
  N   6.94467145211144      1.96033227453998     -1.33247038110215
  H   1.47296096057605      0.53704117583853     -1.72501006336080
  H   1.01527661098461      0.54561614931434     -0.00859935337168
  H   1.17602480583560     -0.98108141168420     -0.86743122452976
  H   3.85119285845054      0.66726750658256     -2.23721392082843
  H   8.57936652114908     -0.00637786280493      2.34525993788807
  H   6.95046591964083      0.50019741787387      2.81085510655418
  H   8.63724297371186      1.81947154679714      0.84486226364569
  H   8.22436093757574      2.38794352669644      2.31348943642825
  H   7.43317300406502     -2.03802362306397     -0.44267062044796
  H   7.04461893808840     -1.25163767942750     -2.22288764111896
  H   7.93106344650720      2.11440740680989     -1.52024193430051
  H   6.70605276467617      2.27404494122123     -0.39416908380232
