22
Coordinates from ORCA-job 23759optt
  Cl  1.54312091136714      1.33910283533421     -1.19241003722180
  C   2.87625564853736      0.70624229411636     -0.25143485000096
  C   4.15857175153179      0.85746496309237     -0.64927015081402
  C   5.29618185170652      0.22090192683377     -0.04514270251982
  O   6.48624171184331      0.59008767790205     -0.31289837272510
  C   5.02823633949689     -0.98157721348880      0.72875535160530
  O   6.03048918062321     -1.89676374418263      0.96097619535496
  C   7.23618904303222     -1.76617954727344      0.31033135799936
  O   7.97242423843445     -2.96211274328553      0.63931479586437
  C   9.13622288837554     -3.05856125452770     -0.03457692235610
  N   9.50522017626030     -2.45093537194349     -1.07573925530359
  C   8.55743116698118     -1.57180918179655     -1.76877899891894
  C   7.16665266545700     -1.74331690385112     -1.21020674789023
  O   6.18913416578710     -2.01933909927409     -1.84779223265871
  C   3.80161438649574     -1.31173180520440      1.21752327644425
  Cl  3.46602148449565     -2.91408070302674      1.81163101621114
  S   2.43731348943912     -0.21936023437458      1.16736618605860
  H   4.37556794110205      1.48079167250549     -1.50945827794277
  H   7.81421855775046     -0.91624643229037      0.66933480826208
  H   9.79821530288856     -3.77732461555815      0.44060735697797
  H   8.56021195346334     -1.81576105089157     -2.83018569609431
  H   8.87046514493094     -0.53149146881503     -1.64994610033167
