29
Coordinates from ORCA-job 2375optt
  Br  1.45357291873353     -0.29492497529674     -1.20148662584146
  C   3.16435032147881     -0.16839534658530     -0.34581699606194
  C   3.64003600635286     -1.32224615265297      0.28628880492576
  C   2.94785121269881     -2.66357743518734      0.54818974440631
  C   2.64303346200706     -3.89107332411082     -0.47573898281575
  C   4.02968654954053     -4.68104149714040     -0.62358616905550
  C   4.86717810423641     -3.45784282785382     -0.15166528198932
  C   4.73375988866372     -2.64612373976178     -1.62185745562351
  C   5.71117761517042     -3.30658514831990     -2.48305917624381
  C   6.53714424895936     -3.84390456526642     -3.16949962188703
  C   6.00177721174044     -2.55853796948957      0.35202368520786
  N   5.10235349211221     -1.30389194883239      0.56970446753037
  C   5.70038336211726     -0.08027984811657      0.49607946823329
  N   5.18118506443355      1.03706850699257      0.16138736887682
  C   3.86007794766634      1.05814426335984     -0.42856967456099
  O   3.47553668619632      2.10111357303685     -0.96529442714133
  N   4.03815708527155     -3.37986506461936      1.15062493532766
  H   2.05716784164144     -2.54069946542969      1.17153220074698
  H   2.20585177930819     -3.60535533288835     -1.42965812028506
  H   1.92203713990396     -4.51423122536280      0.05224054473892
  H   4.21462803024708     -5.00297963144641     -1.64550081937741
  H   4.07352528118587     -5.52814854029858      0.05325155952605
  H   4.98869067317620     -1.59192295202123     -1.59038761854609
  H   3.75288132142001     -2.70573460370252     -2.07861884067501
  H   7.26044201219942     -4.31062926588563     -3.79249152309102
  H   6.78970053768494     -2.34557296767414     -0.36952074820652
  H   6.43817695722499     -2.85127402264389      1.30796857161440
  H   6.75654984757140     -0.09778169345968      0.77869730242488
  H   4.48008740105720     -2.78070679934292      1.83576342784247
