27
Coordinates from ORCA-job 23769optt
  C   1.40371865041170     -1.06534048519987      0.61546974996092
  C   2.79374242917733     -0.53333155802257      0.34970268005387
  C   3.16102997313200      0.88518386799568      0.83239362735970
  C   4.59573192085384      0.37232786941459      1.14184122998633
  C   5.31412597597688      0.86530661183427      2.38899475366296
  C   5.44395301151722      0.57544661274207     -0.03370263478804
  N   6.09759075592719      0.83364784349088     -0.94166393042389
  C   3.98531098285986     -1.06092610553412      1.19277006704087
  N   4.79794838380666     -2.13191437736822      0.74575099021649
  C   4.36037086979637     -3.31516837553285      1.05590863111636
  N   3.22788466395932     -3.58675863608863      1.72301653680782
  C   2.95442900947739     -4.85568442804969      2.05143132047760
  O   3.56397835199242     -5.92016543983516      1.27130252098828
  C   4.69386142553341     -5.54154052545239      0.71344406164678
  Cl  5.54801975689431     -6.93669519301524      0.06192244862122
  N   5.19501707546277     -4.40032184443295      0.59911734403225
  H   0.64837358799521     -0.49234620260000      0.06903885751296
  H   1.17531679687585     -1.00970293659807      1.68269240070096
  H   1.33468064657943     -2.11360866275694      0.32663807006120
  H   3.06192602508392     -0.63768675423428     -0.70503030741518
  H   2.65092613648458      1.12391502095830      1.76875600554573
  H   3.06647700785226      1.71894347936298      0.13787457979854
  H   5.61489463329042      1.91055474531625      2.29626860551890
  H   6.20406564784539      0.26003036298457      2.56720409269263
  H   4.64947791427945      0.76394863361585      3.24795027494710
  H   3.61720927972947     -1.20461555188932      2.22089067959000
  H   1.93593908720523     -5.15249797110507      2.27101734428758
