23
Coordinates from ORCA-job 23776optt
  C   1.13560637641866      0.03118320702173     -0.21888240393998
  C   2.62235048057558     -0.01088474279118     -0.10995655296629
  C   3.47515499724217      1.06129651993912      0.02141387988611
  N   3.19203586130146      2.43440560706834      0.07099487157174
  C   2.67461962035963      3.12898563738533     -0.97445419937422
  O   2.26884408321814      4.26838761825465     -0.91220937639988
  N   4.78516569196184      0.60261865995021      0.13647966695972
  C   4.78319681214859     -0.76880981508129      0.05464042122476
  C   3.44292979772843     -1.16662378061072     -0.09662124373069
  N   3.12289859899949     -2.49450162926335     -0.20500419271752
  C   4.14086984939930     -3.29367846218596     -0.15312984112932
  Cl  3.73982805049036     -4.99257052351970     -0.29552944753649
  C   5.51261744822121     -2.91500443763582     -0.00128387976745
  C   6.64493261105962     -3.79922559278765      0.05820872392912
  O   6.69647222607866     -5.02644725721165      0.01220598161624
  N   5.82945796439726     -1.56432705989553      0.10371003764330
  H   0.75928105722702      1.04475052823656     -0.07033756243750
  H   0.67984003388337     -0.62272878926610      0.52662942275423
  H   0.80028206204794     -0.32056675378521     -1.19657555791062
  H   3.20423233169646      2.92897371134982      0.95512819352669
  H   2.66044816537613      2.52879542224465     -1.89813015248526
  H   5.60996223590627      1.17617544480618      0.12854649145435
  H   7.57997364426227     -3.21320351222244      0.16215671982897
