20
Coordinates from ORCA-job 23771optt
  Cl  1.06690016000859     -0.17597239277255      0.04406420523735
  C   2.76979057849709      0.03865733390279      0.12060562268726
  C   3.45205969803723      1.26270443326299      0.03790477894102
  C   2.73478259315157      2.50365612812935     -0.01432051036894
  O   1.51318747922108      2.61824650110124      0.21411607545699
  C   3.41248572616956      3.73797343634721     -0.43160818821634
  N   3.74081570529977      4.77836535584972     -0.79503516522427
  C   4.91774215710499      1.17056634227064      0.05880428102110
  N   5.61169948319898      2.30416313302107      0.09247293020107
  C   6.94093314212945      2.24636175878325      0.23105946014665
  N   7.77036977451365      1.23515324715786      0.26469193419934
  S   7.24931838531575     -0.25233627785268     -0.05604958396570
  O   7.54624271939287     -0.58120876605490     -1.42634785153111
  O   7.73004060130744     -1.18232261771458      0.93460814227102
  C   5.51508052191402     -0.10604862476010      0.09923693468762
  C   4.76097860520248     -1.25810592341304      0.20443939180249
  N   3.42635199206034     -1.14109184344847      0.21428199443781
  H   7.41069389613007      3.21885777601315      0.36768463838783
  H   5.18298669407482     -2.24756353396119      0.28568232059704
  H   2.85354008727020     -1.97005546586176      0.27270858923176
