26
Coordinates from ORCA-job 23770optt
  Cl  0.82309753484773      0.01566901731196     -0.20232116274439
  C   2.57391576585508     -0.05999932575992     -0.12048975896204
  N   3.26437760765517      0.73418924722734     -0.86009779828410
  C   4.60507893515621      0.72244782399466     -0.83538825487895
  C   5.42382194666842     -0.11212883585614     -0.04458002194074
  C   6.91859986195711     -0.02055229451055     -0.09770038595046
  C   7.64631494827683     -1.00276454294443     -1.03527260777694
  C   7.21782000392455     -0.46984321237286     -2.39533922949792
  O   7.29612624348056      0.95735982094221     -2.21030536889431
  C   7.61456209222684      1.15403334631477     -0.83342378173329
  C   9.07809617666655      0.74128778652259     -0.66658788348147
  O   9.03084860355370     -0.68112013447093     -0.85413662365296
  C   7.27369362750830      2.54890342307611     -0.40703805010014
  O   7.81577119062676      3.10043155187687      0.51519376180201
  C   4.91761948903726     -1.10862905649627      0.83070554509866
  N   5.52550473851703     -1.97526968701803      1.57723774279572
  S   3.13159491252210     -1.27771199073410      1.00799692839743
  H   5.07166352810838      1.40581091453744     -1.53176024176068
  H   7.34968417826409     -0.10097433733441      0.90450514360771
  H   7.48259397215236     -2.06274690321071     -0.86157153694710
  H   6.19141568794051     -0.74731113719327     -2.64497003388263
  H   7.90662529097952     -0.76677031665516     -3.18688532753259
  H   9.47023086796036      0.98767674673070      0.32130795834826
  H   9.69590822444585      1.19800827789093     -1.44229028684293
  H   6.48448220463609      3.04578896532548     -0.99589651353603
  H   6.53455236703251     -1.89378514719428      1.47910778834989
