27
Coordinates from ORCA-job 2377optt
  Br  1.84869062605079     -0.59261809373171      1.43938913093827
  C   3.54402991315134      0.11754056549196      0.79188917762855
  C   3.99519486002706      1.30139003906607      1.21392228963343
  C   3.07369344193808      2.48001643447941      1.35659124112252
  C   1.65492396132265      2.75939407122540      1.84897206607054
  C   2.08365707333763      4.22139202711541      1.55597259890690
  C   1.83601987220925      4.72906443488141      0.10098092772747
  C   2.73878599536818      4.27097534535856     -1.09258491270025
  C   2.30230291647356      3.04912443799839     -1.87054292860043
  C   2.88466666476879      1.82019591552699     -1.99358077750361
  C   4.09511763075559      1.32494948343638     -1.39366330069581
  S   4.06480632191399     -0.40712258395247     -0.81256960050870
  N   5.00628881324946      2.09584688950383     -0.79210244729748
  C   5.25626523218505      1.86184570965243      0.51432767561193
  O   6.23001498695838      2.20953157152255      1.16386446353406
  N   3.47457682844520      3.80074043821389      1.86360702787123
  H   2.92801834588483      2.58053294924306      0.28388084108629
  H   1.52315440969501      2.58820307613657      2.91604118917684
  H   0.83856255249993      2.33645441417321      1.26892865192863
  H   1.69671792216521      4.97315417328950      2.24721111907600
  H   1.94005250256094      5.81663019251134      0.15179966427364
  H   0.78599883005742      4.54147947875512     -0.14998681464286
  H   2.73445522805261      5.11158164202832     -1.79525552045262
  H   3.77525288967436      4.16233161963268     -0.77325620526126
  H   1.35482355097287      3.17000290705869     -2.39136176021307
  H   2.31607432184085      1.08056727481580     -2.54860236815028
  H   4.20985430844094      4.24379558656714      1.31612857144007
