28
Coordinates from ORCA-job 23781optt
  C   3.10601388211513     -1.38623748550527     -1.31903117916493
  C   2.69343949766773     -0.12345847271948     -0.56985312658513
  C   3.04307851344099     -0.24032735355333      0.90992845550491
  C   3.35341422442592      1.11355328085195     -1.18827312598637
  N   4.77958505322762      1.05014189879954     -1.08805878779584
  C   5.43242569123388      2.07891636460076     -1.57429229091261
  N   4.82398278328372      3.20043328690321     -2.18027884135178
  C   5.76440604944403      4.10759900421009     -2.60599107213560
  C   5.60924681165775      5.31120898028208     -3.29230617814369
  N   6.86921879784969      6.01708624782455     -3.43356830493056
  C   8.02799539395531      5.39575808548164     -3.08002309847926
  Cl  9.45292431313265      6.35551262548757     -3.50650312247185
  N   8.19746126078447      4.29406291501005     -2.49087965548479
  C   7.01395770317565      3.57721538808045     -2.23521930374896
  C   6.82943240785066      2.34204039143710     -1.61159148621070
  H   2.63472739209230     -2.27503361935007     -0.89078005761676
  H   4.18974766564195     -1.49705046589045     -1.26479144883998
  H   2.82809303592416     -1.32458303973385     -2.37414929914152
  H   1.60801032975380      0.00264125907989     -0.66584594153361
  H   4.12405876033556     -0.33664726120431      1.01649332257766
  H   2.55994505784274     -1.10974944391585      1.36396586849407
  H   2.73187284118624      0.65208065178336      1.45857851810516
  H   2.93616944195143      2.00560000411356     -0.67750196028191
  H   3.00503920328580      1.18243618173302     -2.24025049945492
  H   3.84390894217037      3.26048797947621     -2.38502513775744
  H   4.74823455014755      5.95415839536235     -3.15003599722970
  H   6.95659925689363      6.67121375302103     -4.19393818452138
  H   7.58201113952888      1.68994044833400     -1.20277806490238
