26
Coordinates from ORCA-job 23784optt
  C   3.17816849244691      1.35117878232746     -0.22147123045971
  C   2.56475391278425     -0.05897085804138     -0.12047949652141
  C   1.04886751399364      0.12470758083183     -0.10267081000081
  O   0.39293100901977      0.16570613133087      0.89647372146058
  C   2.89883120443496     -0.80724907017863     -1.34082116425288
  N   3.06674816261956     -1.36452195076836     -2.32892722713539
  C   3.09235202834880     -0.77047179727569      1.14629094972721
  C   2.61477560624359     -2.20695350579896      1.21599415763030
  O   2.13076204471199     -2.71968935591808      2.19366090597588
  N   4.52009897858893     -0.81627280616005      1.06620562588540
  C   5.21331033580757     -0.96541760794634      2.18756900340174
  N   4.60324922968927     -1.17035659393355      3.41019441227960
  N   5.22388760889163     -1.35118496039983      4.63700480319266
  C   6.54892188205707     -1.24511617173527      4.59956534139368
  C   7.26133634046778     -1.01418987950357      3.44209088247404
  Cl  9.00303639217343     -0.90063347772002      3.52040830406461
  C   6.61750456671122     -0.88090929410146      2.19846344087753
  H   2.82543113343575      1.87151859421963     -1.11304302618597
  H   4.26008445068133      1.24086716701315     -0.25193392122433
  H   2.90012323317457      1.91769046551055      0.66762133428500
  H   0.58703647905501      0.27457177405178     -1.09899136264757
  H   2.67709216970442     -0.22463312126493      2.00513385103337
  H   2.85388050556551     -2.80852763029931      0.31755175433659
  H   3.63765647669745     -1.45305678593021      3.43322070814952
  H   7.05373501313502     -1.36757888219778      5.54952047753588
  H   7.14242522956021     -0.69450674611180      1.27636856472437
