33
Coordinates from ORCA-job 23789optt
  C   3.58760942753275      0.09280854379876     -0.89014690814874
  C   2.47273031449786      0.04754162616811      0.15668107339550
  C   2.97244904539995     -0.43526379139722      1.49430983039280
  C   3.42993823630469      0.44389170901451      2.45636287661750
  Cl  3.53088153859695      2.17821414997122      2.08818284890061
  N   3.94216580617681      0.13531098847373      3.68227047093940
  C   3.98024396420837     -1.17693681522209      3.95111894089395
  C   3.53373803434732     -2.16743896533570      3.10190763670065
  C   3.03907778844345     -1.80929400550322      1.79561262565952
  C   2.47647133836596     -2.89386793218040      0.93291994659417
  N   4.59307596970498     -1.51162404911640      5.19172480662872
  C   3.87783345285200     -2.49842564482407      6.06145010532925
  C   2.98614412534530     -1.34703326464888      6.56832567063797
  C   4.30344781848444     -0.57902027751405      6.32861033813218
  C   5.23637166672743     -1.15686366700186      7.39836654871349
  C   4.90256508836082     -2.66385935142401      7.19012504416250
  H   3.21822275926883      0.43372731912673     -1.86123614305684
  H   4.03364083057309     -0.89618758696300     -1.01439448553827
  H   4.37373738587514      0.77431224723943     -0.56055891503702
  H   1.66860301187394     -0.60412779213141     -0.19240481107051
  H   2.04278526873460      1.04310089240182      0.26421210043192
  H   3.64872912484579     -3.21063615576771      3.37101072748427
  H   3.12929033717653     -3.77495400834745      0.94763516087790
  H   2.36409127878610     -2.59741644038645     -0.11090593724741
  H   1.48840189849908     -3.24597959886779      1.28159666545598
  H   3.47453771049330     -3.39067813638292      5.59106256475841
  H   2.57425098026404     -1.39970910688290      7.58010465052373
  H   2.23025407584640     -1.07651638972619      5.83399238797108
  H   4.33303345631331      0.48030791486929      6.10122736717678
  H   4.99291850408412     -0.79815054944554      8.39990877871410
  H   6.27833089368540     -0.92849307772792      7.17903101860048
  H   4.47354762157065     -3.13716447244843      8.07501235565682
  H   5.76688124676045     -3.23857431181795      6.85988465874903
