27
Coordinates from ORCA-job 23780optt
  C   0.87593175932589      0.21349870962150     -0.12934917816298
  C   2.34451628295032     -0.16209325534025     -0.28548369413947
  C   2.81404308656709     -1.05520117489009      0.84270749156106
  O   4.18079089584694     -1.36883446615067      0.63349312287973
  C   4.72535433551471     -2.11751533594436      1.66249824295748
  C   5.29976983143147     -1.56734424978818      2.77457170228464
  Cl  5.24702112151273      0.19402919641807      2.93427965285151
  N   5.86722339876912     -2.22422774874999      3.79577860255259
  C   5.84259546265637     -3.58931800524886      3.66025333943370
  C   5.28169850567340     -4.27240804382118      2.61999889993143
  C   4.66346355547775     -3.53506152726250      1.57366227691989
  N   4.46263079129302     -4.18528404559388      0.35143603560361
  C   4.80035189481171     -5.49643185740365      0.20872613279102
  N   5.16984110132155     -6.29962640246931      1.14179918578192
  C   5.23849112913048     -5.77714804739664      2.50710929774973
  H   0.54308017254804      0.86883123276832     -0.93548143376262
  H   0.70676261381679      0.73270709080712      0.81606911959916
  H   0.24186981064592     -0.67572318250457     -0.13663922447124
  H   2.96981869369498      0.73362074834249     -0.29638598643538
  H   2.50663667433700     -0.67588710937605     -1.23655915562476
  H   2.22443126623444     -1.98090032352067      0.88095949323749
  H   2.70237912068345     -0.54304853064605      1.80503423923814
  H   6.30367038321277     -4.14229258615017      4.47505721982530
  H   4.30742871716757     -3.61555026589951     -0.46345399748857
  H   4.69892531748689     -5.87797457276934     -0.80513313081102
  H   6.11650489171965     -6.20934680166146      2.99707357607635
  H   4.36676918616983     -6.16246944537007      3.05397816962127
