24
Coordinates from ORCA-job 23785optt
  C   0.85364816591283      0.30696267728604     -0.56135836790934
  C   2.33953713726189      0.05526519888641     -0.34665271011643
  C   2.82347804928340     -1.14853001276803     -1.08126082138627
  N   2.03659992294958     -1.93524732560935     -1.78866125799626
  C   2.58300380784303     -3.02288281472942     -2.27424051134343
  Cl  1.54810419158608     -4.05117199392585     -3.25449746181036
  C   3.92425309361599     -3.39773224164681     -2.11480318921758
  C   4.74572380701053     -2.60453933006410     -1.28920191121066
  O   5.91627614892594     -2.75097669671460     -0.99345041432198
  O   4.10587379745531     -1.49559723444599     -0.69637550686924
  C   3.15599684977886      1.31086532512630     -0.67916193432456
  C   3.44086915602472      2.31042837139899      0.42006889157649
  C   4.54326719665171      1.45839628992443     -0.11835736000255
  C   2.92353228157621      1.89005625550255     -1.98125980918058
  N   2.73205758629782      2.40067693632117     -2.99209565550928
  H   0.27201720248727     -0.55442189507282     -0.23842791110238
  H   0.64711832722650      0.46229557393289     -1.62069843751520
  H   0.53741505214755      1.19211379699957     -0.00504880800753
  H   2.52651711116510     -0.10905151393228      0.72792680598799
  H   4.34203341716650     -4.27824887316545     -2.57216313407796
  H   3.02751441146072      2.06565455239934      1.38955350870804
  H   3.42697687546203      3.35880925730217      0.15926019364706
  H   4.89122388162180      0.61561664572584      0.46145621624813
  H   5.28596252908855      1.92525905126902     -0.74855041426609
