22
Coordinates from ORCA-job 23788optt
  Cl  0.86152773430628     -0.06979277903728      0.41014392967785
  C   2.60666457905354     -0.08435246214447      0.44881786680816
  N   3.25628308469388      1.05830790162573      0.24752475629293
  C   4.57719384742128      1.01289957012309      0.12861981644379
  C   5.43464173107924     -0.08053802914013      0.25406984615323
  C   6.92936306185738     -0.02247118629725     -0.14756224932817
  C   7.25745531228081      1.14246926196266     -1.17190621618714
  O   6.01000304754095      1.60100808143815     -1.61815482313886
  C   5.51658539879261      2.11234074719964     -0.34653758434940
  C   6.33755558845346      3.38403403418169     -0.38982373469284
  O   6.24207249015895      4.52929627263140     -0.09793075402504
  C   7.72967317926778      2.57891850869862     -0.72484787680551
  O   8.82167807774818      3.04469257153379     -0.69031050386718
  N   4.87600453431473     -1.37754269400154      0.47463312620201
  S   3.32673313409439     -1.58994431431506     -0.08450845353480
  O   3.39627344686743     -1.64544147124288     -1.51916190489437
  O   2.79660654887223     -2.71950919441417      0.63143788022061
  H   7.15365344617710     -0.97218462230049     -0.63616056411577
  H   7.59696041809479      0.04645340337307      0.71932730454552
  H   7.88161857004054      0.80359428994938     -2.00055303507654
  H   6.23437562620842      1.82483805810007      0.45243267737696
  H   4.91107714267592     -1.71007594792402      1.43445049629456
