24
Coordinates from ORCA-job 2379optt
  Br  1.48483291360177     -0.22273673863722      1.36686940543314
  C   3.13387922747808     -0.09202145453854      0.42062890608512
  C   3.93745495133213     -1.22907017602451      0.24457475306193
  C   3.97187219931994     -2.61521649233244      0.81049019314232
  C   4.75294471452780     -3.35467182851298     -0.28186216632750
  C   5.90250633532250     -2.30694306954354     -0.37981859973356
  C   6.94528829852504     -2.55466838499436     -1.35641568827480
  C   7.81414187030373     -2.75869497407688     -2.15766617913021
  C   6.37950093255120     -2.32256941364694      1.10979847384706
  C   7.25048365109675     -1.21211409382922      1.48201198211552
  N   7.97884279761425     -0.38928857816368      1.81143724850084
  C   5.03060194916585     -2.38526590238223      1.88267062206695
  O   4.88976005635196     -2.14313253989209      3.07354724046536
  C   5.10864964732203     -1.02660859129522     -0.52836127766295
  C   5.41094778862311      0.18501243011068     -1.07271401027968
  N   4.59824229670585      1.26818660328003     -0.92970008294886
  C   3.49528857337433      1.09383163340152     -0.18746616925912
  H   3.03865949651032     -3.03415884501798      1.17526389976723
  H   4.20990898009076     -3.41875603420441     -1.22417635951636
  H   5.11506976689233     -4.33592905063166      0.02913244245057
  H   8.58177820035817     -2.92439775704381     -2.87358987191555
  H   6.94356802445099     -3.24185888050823      1.29518325474795
  H   6.32130329395984      0.32723211828251     -1.64538896165062
  H   2.84347403452115      1.95584002020124     -0.08244905498477
