31
Coordinates from ORCA-job 23797optt
  C   2.79614554774432     -0.19138341309144      1.39939414075969
  C   2.42135077651170     -0.00043885244770     -0.05472780647823
  C   2.70234932393313     -1.23748796781140     -0.91927497420633
  N   4.07461022412958     -1.71411486779328     -0.81061718724448
  O   0.96022840387210      0.23167005348751     -0.19080030107142
  C   0.03716759236503     -0.56444613295357      0.30048521885236
  O   0.16705058233504     -1.59456654567921      0.90489543951482
  C   2.99606268475961      1.31344896396930     -0.66653509208952
  N   2.40583920913679      2.51353259483650     -0.06964222174881
  C   4.49697822277649      1.43598849411406     -0.57208097066783
  N   4.98346568985037      1.95007264948651      0.59612047361595
  C   6.28891820541947      2.14612653939414      0.66537417001672
  Cl  6.91359665432121      2.77230631130983      2.19324904948924
  C   7.17821070614623      1.93030488269479     -0.33575929243460
  N   6.66384535049331      1.48803607456301     -1.56553100031248
  C   5.31068293865941      1.12219547541068     -1.68894252014085
  N   4.87015966423042      0.51566785190560     -2.76793545272297
  H   2.34968635199047     -1.09774913210516      1.80266974736043
  H   2.47977979406608      0.67072746538255      1.98809554807119
  H   3.87941115756409     -0.26400489400399      1.45812321343344
  H   2.42397003186150     -0.98003965664974     -1.94913073961347
  H   2.03741655519317     -2.02702439288290     -0.56705842603452
  H   4.64558183705826     -1.18634144655665     -1.46861869693370
  H   4.11202772695555     -2.68457719324328     -1.09422098069285
  H   -0.95230337953069     -0.13761901875211      0.07129270095648
  H   2.73577387756872      1.27862351470330     -1.72736621081150
  H   2.95684986919290      2.76516876170856      0.74480879083610
  H   1.44985161178228      2.34446520606976      0.21295380861355
  H   8.23464993097376      2.13042431779785     -0.26776645786445
  H   7.29041009961136      0.97237515322079     -2.16327089806396
  H   5.60523275902820      0.47165920391570     -3.47018307238798
