36
Coordinates from ORCA-job 23807opt
  C   0.71244863379707      2.11242978852542      1.07812563840803
  C   2.15852670741004      2.08630637355374      0.59664890050150
  C   2.95271856890055      0.88974910337293      1.14206813874977
  C   2.57773537012998     -0.39474928229308      0.40195130020528
  C   4.47901106857586      1.11912022810483      1.11015880260585
  C   4.90164327434742      1.68926920492151     -0.25076759541263
  O   6.27651819201669      1.44459728327359     -0.45146396029869
  C   6.85181424632523      2.29656395581041     -1.39771136276406
  C   4.99926492358252      1.96308925125107      2.25245615642447
  C   4.23005955544562      2.66533267315496      3.15188006831848
  C   4.65436760325420      3.28154807617039      4.36265046558696
  N   3.92967407730476      4.09565296229430      5.13877401921992
  C   5.93281520590566      2.82360254463944      4.92563693908296
  N   6.03680208292482      2.95436992360614      6.30297900732776
  C   6.87571575205893      2.22852046478681      4.16424542484377
  Cl  8.28517811391881      1.50149017400943      4.92912301981086
  S   6.76143949610035      2.02803176249728      2.42395134556711
  H   0.16853699751646      2.96107294213931      0.65986814957590
  H   0.67696368990920      2.19580214471790      2.16661989905939
  H   0.17562243838344      1.20440604307203      0.79680952727388
  H   2.64830222290332      3.01464372729324      0.89617752751055
  H   2.18061008419777      2.06207979199269     -0.49875464004438
  H   2.67829589641239      0.75547925083824      2.19184408006431
  H   2.90037939838391     -0.35870342788163     -0.64149926993775
  H   1.49804634498647     -0.55929773908329      0.40883230715053
  H   3.05074027744220     -1.26063443034760      0.86722720645847
  H   4.96243423696238      0.13462344068470      1.17363412974823
  H   4.71171869463055      2.76984474156300     -0.26497008557084
  H   4.33621750174094      1.23261253420702     -1.07764750979900
  H   7.90385285035525      2.02879884712534     -1.48677161216596
  H   6.77748095079935      3.34354505238779     -1.08060150548617
  H   6.37118340116654      2.19192724191206     -2.38067687436306
  H   3.15568416503832      2.71387886908290      2.98544318824662
  H   3.04964568767050      4.30505837758326      4.67366972142714
  H   5.36990735786649      3.64723758576519      6.62642323869470
  H   6.97664493163585      3.05770051926855      6.65166621398002
