22
Coordinates from ORCA-job 23802optt
  Cl  4.62560849858080      1.26731733066297      2.28441430339637
  C   4.07587379047950      0.42020194293367      0.87303406592168
  C   2.99935250320756      0.91905687324264      0.11977778108636
  C   2.38775083635210      2.26318236869486      0.21965878939417
  N   0.92840240314613      2.23221152652526      0.04550361101758
  C   0.49988785685132      2.33443593756230     -1.11459356033474
  C   0.99979120864921      2.51370198419866     -2.53954430929661
  C   -0.49195912376840      2.44472208573016     -2.87855530029025
  O   -0.83125230208371      2.28964611940212     -1.48205946181196
  O   2.86535840531710      0.42364078188669     -1.20100939223071
  C   3.34864729252812     -0.77711933160359     -1.54769165356704
  O   3.11698351996394     -1.22681614211985     -2.64994336337852
  N   4.08527106686337     -1.41194748750949     -0.59816009334879
  C   4.68570982179988     -0.79698844733886      0.56264601748854
  O   5.61210775284984     -1.40579326143476      1.10996336597785
  H   2.83579866204853      2.94607936317992     -0.52675064212519
  H   2.59974666159582      2.66586188540388      1.20669630332867
  H   1.61802942994428      1.69066057156562     -2.88852549007778
  H   1.48840336222723      3.46713454593757     -2.72995232849025
  H   -0.80254200351337      1.57404394872567     -3.45482198698093
  H   -0.93554742797884      3.35250181862376     -3.28844304787111
  H   4.52757778493952     -2.26873441426923     -0.89164360780729
