25
Coordinates from ORCA-job 2380optt
  Br  0.85654945573933     -0.32987560079068      0.25559920854173
  C   2.74711330216776     -0.10845698702914      0.12306676567422
  C   3.58033122880780     -1.16494278422943      0.48580224092800
  C   3.21223600439947     -2.57284307197436      0.87119610549723
  C   2.97481570586309     -3.45146137440496     -0.38389370907028
  C   4.24490148258082     -4.25520740637685     -0.68986258951768
  C   5.55664016200762     -3.44217606263999     -0.53973306534799
  C   5.88202261488597     -2.71017707863737     -1.76103819177322
  C   6.13100526902066     -2.12666072678206     -2.77799905483493
  C   5.44935132762547     -2.52528125719594      0.73170995783942
  O   4.39729163797843     -3.04763584366619      1.53203294358599
  C   4.96860481526986     -1.12591226848693      0.40723903488400
  N   5.77234008135541     -0.14945947791715      0.05666502015691
  S   5.03554263717868      1.29145622822605     -0.39665232912372
  C   3.23380550116888      1.14424929512648     -0.31965157972133
  N   2.52305315079931      2.16603375022663     -0.65486634860790
  H   2.38576597731389     -2.63584172045509      1.57750124089234
  H   2.70287809036963     -2.80910310827471     -1.22279567463403
  H   2.14807032982366     -4.14748202430063     -0.22440151424956
  H   4.19942236148425     -4.67994096101022     -1.69353192164357
  H   4.30361970780931     -5.08311300925565      0.01667016851564
  H   6.36317998891129     -4.16153352663740     -0.37106434953678
  H   6.34612045180522     -1.56244547959075     -3.65226498599025
  H   6.37720767566530     -2.54086567392612      1.30227617829159
  H   3.11813103996882      2.94367617000246     -0.93500355075582
