28
Coordinates from ORCA-job 23801optt
  C   3.49434017678938      0.31954933065500     -1.31980531582266
  C   2.87637473482285      0.28584654902009      0.07647674781572
  N   2.91008660593680     -1.06439920272292      0.59638274879636
  C   2.23314577592496     -1.24509769689763      1.87730114169879
  C   2.70386096620960     -2.50874258476104      2.52429340906992
  C   1.98626941985653     -3.41165576124535      3.28581153524311
  S   0.28986260873681     -3.39810429144062      3.71930356822600
  C   0.07302971362767     -4.98782978447368      4.46740722575230
  N   -1.08106692312614     -5.40603966489051      4.84336641783336
  N   1.16358591026720     -5.77493669846198      4.70442215240433
  C   2.52353581990139     -5.49070034614607      4.52320455418792
  Cl  3.51439270361656     -6.93236176817060      4.58837780750952
  C   2.90699626074236     -4.40447530691392      3.71700176466737
  C   4.13730488613537     -4.00872038900350      3.15502969863340
  N   4.01361526062148     -2.87620257690484      2.44830181568271
  C   3.53799299517345      1.28927812451239      0.94284515063653
  C   4.10213414490805      2.08358098629290      1.64292624248660
  H   2.95694543971104     -0.37474737122115     -1.96423600729731
  H   4.53877871858458      0.00831921147863     -1.26672861690430
  H   3.45577983370606      1.32356867345578     -1.74256706438678
  H   1.82301049963765      0.57755880986379     -0.00028633754705
  H   3.86537427081861     -1.39752414209810      0.71066407606281
  H   1.15054579029810     -1.28797857020694      1.71125771303393
  H   2.42545272188815     -0.38950927819588      2.54474556573325
  H   -1.80283297455448     -4.73729941289436      4.59580782356367
  H   0.93395203962764     -6.60421567305452      5.23278118199587
  H   5.07955348693489     -4.53232738097939      3.23474886757267
  H   4.60197911320340      2.77016621540448      2.28216613335193
