24
Coordinates from ORCA-job 23809optt
  C   1.10842824293926      0.13460538590833      0.53990446657242
  C   2.54703246079528      0.07156233336598      0.15145622820933
  C   3.25377719074127     -1.10872093445010      0.01755380534004
  C   2.85854551142808     -2.46711559580451      0.07881648509318
  C   3.99693395399030     -3.25169663227311     -0.17002324677570
  C   5.11566929785106     -2.43729027254942     -0.36896956144111
  C   4.67719534939317     -1.09573309177996     -0.24500074356756
  C   5.37227084874066      0.10198355382780     -0.10261545450323
  O   6.72805396084094      0.09978464494382     -0.09523073662033
  C   4.69665871204201      1.30455745610368      0.07481037311974
  N   3.25859446254887      1.27563003766554     -0.10260677152630
  C   2.61237246245102      2.30442978566729     -0.72611879764747
  O   1.49065517895129      2.26686272551084     -1.18949104520127
  S   3.49018726318217      3.85792743286072     -0.78743721083423
  N   4.75148760003117      3.71568544782693      0.32239480447259
  C   5.24238319681002      2.54969334254027      0.50117296479324
  Cl  6.70389802479715      2.54573412923679      1.49481032366555
  H   0.87089983794722     -0.75119821416484      1.13175013300540
  H   0.43868680599149      0.17366500584407     -0.32180024342733
  H   0.90254243111030      1.02253676803964      1.14012570629582
  H   1.85434077660938     -2.83203905941464      0.23373205824354
  H   4.00620766343514     -4.33269572409744     -0.21334102847123
  H   6.11712394311807     -2.78325881367796     -0.58723850015205
  H   7.00405482425463     -0.82090971112972     -0.01765400864304
