27
Coordinates from ORCA-job 23827optt
  C   0.83249303821459     -0.24731783999326      0.03190750609943
  C   2.34207623922227     -0.09258273413712      0.17845635438679
  C   2.84252417754560     -0.64573409675524      1.43989170814500
  C   3.88020808961936     -0.16148599419165      2.23501522971137
  Cl  4.56573814088754      1.41296755104401      1.93735288870553
  C   4.29840103080725     -0.90919481065220      3.32887257673250
  N   5.32777695961522     -0.47596009572288      4.15785580627964
  N   3.75718663837421     -2.08704120037871      3.64595598388223
  C   2.73584832454379     -2.56380882809380      2.89011870120487
  N   2.07239037568016     -3.63628172711938      3.10501657234545
  O   2.31645214388949     -1.86704970567932      1.76972846029558
  C   3.04804198730150     -0.78351589432870     -1.15182769442561
  O   2.64850197141428     -2.11635539795463     -1.27250541300902
  C   2.60744139003649      0.00112519283338     -2.35080840354845
  O   1.80622484195250     -0.43830007533107     -3.15736626651908
  C   4.49768678635480     -0.66093815635894     -1.01920305258306
  C   5.67763089054028     -0.50154297242667     -0.88529101933148
  H   0.33147182768132      0.26499871322443      0.85312630318724
  H   0.56108148983629     -1.30077674239466      0.07366308190163
  H   0.47857356262305      0.17234589101628     -0.91117051325780
  H   2.63817797927564      0.95553024631287      0.12829297003677
  H   5.45375764380016      0.52355939138976      4.19624157312146
  H   5.27854682176319     -0.92180356545018      5.06188230715776
  H   2.47261206634116     -4.06125676398982      3.93608175851179
  H   2.03646727713202     -2.13821852687922     -2.02409147696366
  H   3.00236074545467      1.02770093322287     -2.42043518275940
  H   6.72132756009307     -0.37306279120614     -0.73176075930748
