31
Coordinates from ORCA-job 23829optt
  C   3.08764096115091     -1.58931053092493      1.90519974514104
  C   3.62427335672592     -0.71779544123746      0.81187886278300
  C   4.01532513830873      0.59601100813063      0.95883023616935
  Cl  3.97311262227672      1.32040383020389      2.57940927178346
  C   4.43088213750581      1.40590044533604     -0.11128051383353
  C   5.21843010124840      2.67445771610005      0.02365061305339
  C   6.71038714018198      2.38361960311585     -0.10913486373846
  C   7.79661968457546      3.38797362151857      0.33649875355757
  C   8.63657603519728      2.18083894375264      0.81351628200198
  C   7.32959854218865      1.36964860842642      0.87963010056535
  N   7.38068935683242     -0.04888270272299      0.59428433890392
  C   4.41140574390992      0.74075843140310     -1.39082589887039
  C   4.02347027179788     -0.58027995648823     -1.46575294954278
  N   3.95911763899199     -1.24010469800669     -2.71682138741264
  N   3.65316739828045     -1.33768919881112     -0.42865709920568
  H   2.03724687291846     -1.83569393751274      1.70833751374537
  H   3.16060261404314     -1.13039846607827      2.88806063630633
  H   3.63233521856606     -2.53814617317907      1.91278997569401
  H   5.03663666477540      3.14687766281302      0.99205822983300
  H   4.91852520886719      3.39535112499777     -0.74973145097317
  H   6.93178939830189      2.03466313390350     -1.12459477341362
  H   7.44589726814939      3.98352573819008      1.18293867100619
  H   8.23144331281287      4.05242487021234     -0.41046308683473
  H   9.23561395878074      2.27561688594368      1.71985069430684
  H   9.26735244149233      1.80284126998089      0.00490912142112
  H   6.85782028629282      1.50496785469592      1.85739464339240
  H   7.58768407456922     -0.17990772201369     -0.39195732735697
  H   6.44961718382276     -0.44271505459193      0.72380070586940
  H   4.65993355093002      1.28907932459697     -2.29401450207318
  H   4.69414866823177     -0.94555076721399     -3.34374439153956
  H   3.99065714827319     -2.23948542454027     -2.56406015073899
