24
Coordinates from ORCA-job 23825optt
  C   1.02860949704466     -0.22804349937842     -0.40235002512414
  C   2.50768043273055     -0.07133058116434     -0.32489640220711
  C   3.20846980338397      1.10641126028948     -0.30815335935501
  O   2.69718906619969      2.38844014320917     -0.48137170191377
  C   2.07387026295463      2.97561731667853      0.56675161703239
  N   1.62296271916869      4.21172224007879      0.17858164714076
  O   1.95724783664425      2.51945157344377      1.66776056228899
  C   4.58186536663693      0.83690874676201     -0.14352121415059
  O   5.60034764765514      1.74905023569511     -0.10965234347090
  C   4.70209836698639     -0.52307440849390     -0.07378870069064
  S   6.17882015349232     -1.44818131635852     -0.05196745268471
  C   5.48525763082908     -2.93977512561606      0.58068816930767
  Cl  6.71030749637046     -4.18362247111494      0.74678935945012
  C   4.17455009968360     -3.33373437709397      0.28136644590986
  C   3.11835420994708     -2.49732428729473     -0.09011593657210
  O   1.94146529797338     -2.82498596920506     -0.31266001060413
  N   3.43574373126431     -1.07367628134875     -0.18850379119428
  H   0.58452275720730      0.76647615873168     -0.48503049959561
  H   0.63604917721227     -0.71956261970449      0.48690094161965
  H   0.73194774055570     -0.83524633160749     -1.25511921182942
  H   1.52809539130941      4.37936022019009     -0.80825641743498
  H   0.94989657716116      4.63508168087991      0.79244769655875
  H   5.20576991748962      2.62614173688208     -0.11464246459674
  H   3.90887882009936     -4.37410404445995      0.41174309211593
