29
Coordinates from ORCA-job 23821optt
  C   0.92429961240027     -0.17134511880033      0.22991180516294
  C   2.42245646511367     -0.05206759128017      0.11454356270799
  C   3.04519936377717      1.18564436889742      0.21504267412691
  C   2.22953407392673      2.45574028076203      0.17048638268377
  C   1.89129622841101      3.11069840345060      1.53359357772946
  N   1.80202246962278      4.52632736517335      1.20762327940247
  C   2.42342104662232      4.87199676822997      0.03175839163405
  N   2.65568997181449      6.03971794002200     -0.42575363864212
  C   2.77647022741984      3.60186378596871     -0.70365041520439
  N   4.46555831685812      1.25247705400444      0.21113050124735
  C   5.17563627125030      2.26210826482382      0.79457147896438
  O   4.69956350857156      3.21438574424484      1.40422548765320
  C   5.27069320506041      0.13791335271131     -0.30821584039497
  O   6.46690425584304      0.33927109299014     -0.53111774753690
  C   4.58057567723290     -1.07171739663580     -0.44229897396017
  C   3.21539637261672     -1.16663080828554     -0.16903619003135
  Cl  2.50250859569165     -2.76563845076404     -0.27464948151985
  H   0.51702094889718      0.56109369748940      0.92608976581348
  H   0.65058937194337     -1.16058112147019      0.59024190930284
  H   0.42870262283559     -0.03032567895434     -0.73617463876734
  H   1.27448487274725      2.17577928320415     -0.27226403749622
  H   2.67238952364782      2.91275652495704      2.26330881453618
  H   0.93289428664500      2.74461136445987      1.91249924839582
  H   1.78257273941354      5.20874378289347      1.94819363847355
  H   2.35228858528514      6.75476822345032      0.23489698650299
  H   3.85529774206956      3.56913317496971     -0.82839207324763
  H   2.32779193872965      3.61039988053261     -1.69636751511321
  H   6.24863515675989      2.12027748534694      0.65587662753852
  H   5.15310654879297     -1.93040167239179     -0.75707357996176
