28
Coordinates from ORCA-job 2382optt
  Br  1.11947131382861      0.55330291604298     -0.39242024696352
  C   2.99422851108527      0.30178014070586     -0.26033124443404
  C   3.56888032569470     -0.84034271091522     -0.62580648459794
  C   2.97617505583665     -2.13057581530399     -1.11094590358009
  C   2.23907309345088     -2.93423437033067     -0.01074834342093
  C   3.14058666502127     -3.73487376988076      0.94020637235768
  C   4.37540828139998     -3.00337113529692      1.48813075430902
  C   5.59533957379598     -3.04383169404384      0.56480801157110
  C   5.39956031046495     -2.30182704201921     -0.77212678408474
  N   4.96052488486123     -0.93008152515838     -0.61249995714026
  C   5.77427644184796      0.00846473038624      0.11573139069667
  O   6.96641232025070     -0.29490611326739      0.32065862103837
  C   5.13156369656014      1.23243706911728      0.49777889369876
  O   5.64575572306003      2.16688140385922      1.12575622326188
  N   3.74861521159555      1.42675969345520      0.07000359444775
  C   4.22223528739340     -2.90390771085226     -1.52234852201336
  O   4.25066439704466     -3.85964720480947     -2.25167344805653
  H   2.30968815355195     -1.98781237919000     -1.96245085463859
  H   1.55011043497957     -3.62725768789011     -0.49857511129805
  H   1.63803555423122     -2.22423082397283      0.55963335512156
  H   3.47604712871909     -4.64594382644784      0.43298524539112
  H   2.51604130032527     -4.06495391339727      1.77414657370300
  H   4.66333268558445     -3.47048421376835      2.43287820776403
  H   4.13063423598615     -1.96253878240552      1.72254123189922
  H   5.85929492422169     -4.08390170128811      0.34346817427570
  H   6.44411145457596     -2.56629083796567      1.05459746721530
  H   6.31650410411496     -2.35764018482445     -1.35739500381515
  H   3.30042893051762      2.08302748946152      0.69599778729201
