28
Coordinates from ORCA-job 23832optt
  C   1.99307189292722      1.01510662525373      0.69960112793901
  C   2.84642477220192      0.05731219289524     -0.14230395379986
  C   2.95871961918784     -1.31195480711337      0.44655032785520
  C   3.69632653020588     -1.52988693146336      1.66893321941401
  C   3.78407874251049     -2.80585969175953      2.14503351777385
  Cl  4.73059233623638     -3.06800813640849      3.62099046141877
  N   3.24606976695555     -3.91238362729947      1.63811650650540
  C   2.49695898750774     -3.68668523853007      0.47531357627004
  C   2.37628575829739     -2.44759101812983     -0.11520106505617
  C   1.81114532025928     -4.90392450233562     -0.03243999595370
  N   0.52285243010887     -5.26585393774467      0.53348220054765
  C   2.04900022067646     -5.36304090018352     -1.43845311178167
  C   2.73029320910426     -6.07953616744667     -0.29311909979824
  O   4.08853408635688     -5.90662039459969     -0.10856912121882
  C   2.25521848489963     -7.41182698362924      0.03527883168597
  N   1.91391100890147     -8.47921798201198      0.28466736593063
  H   1.95911216682987      2.01798152962845      0.26387274056787
  H   2.39748954347393      1.09620933591767      1.71017856938034
  H   0.97291935671422      0.63654396565721      0.78428414798518
  H   3.84361020193318      0.50571925012047     -0.26101221380071
  H   2.41824893240386     -0.01642425801542     -1.14644499722621
  H   4.18321017292226     -0.71913677324378      2.19337492819590
  H   1.80647831946724     -2.36674390936280     -1.03824585321802
  H   -0.10123681541227     -4.47498199740521      0.40816853624610
  H   0.64570689671412     -5.37051287885354      1.53758173207393
  H   2.71693536256406     -4.77346332060234     -2.05019999994925
  H   1.24357097358475     -5.88584677187200     -1.93507531053496
  H   4.17147172246745     -5.33137267146205      0.68463693254775
