29
Coordinates from ORCA-job 2384optt
  Br  -1.52953419960265     -4.54633098779143     -3.16710001826689
  C   0.09312735866454     -5.52875803978545     -3.04419785486292
  C   1.33313842508186     -4.93554127718600     -2.75549300366660
  C   1.70206575441745     -3.47655651345933     -2.73246291412281
  C   0.83839190264891     -2.58320962815889     -1.89403308460481
  C   1.26057348684668     -1.33180599944594     -1.74296875351258
  C   1.61851470451904     -0.90204733924510     -0.35857459276497
  C   2.99644470565814     -1.60606617401765     -0.19417662733309
  C   3.03922597094217     -3.10204339322821     -0.59148784207072
  N   3.06072251539895     -3.43192464822523     -2.04232874148071
  C   3.63810239953021     -4.76679230548206     -2.27149654248529
  C   2.46768197860936     -5.69870884915369     -2.46241946500756
  N   2.60743671288394     -7.00415258322927     -2.42597023557421
  N   1.44322390337053     -7.67371358486671     -2.84164466287585
  S   -0.05832732198378     -7.10255496237204     -2.35457838875690
  O   -1.03504295595233     -7.92753711810632     -3.01894956332534
  O   -0.13525128263521     -7.06143556372567     -0.91045979913047
  H   1.83738281894747     -3.06244875012010     -3.74031234448100
  H   0.28858482308798     -3.06972745660992     -1.09327038547343
  H   1.87941730232527     -0.90903535122032     -2.53372055974414
  H   1.71650475004057      0.17439156874637     -0.20141671406899
  H   0.91077447520588     -1.30349000255031      0.37027973949293
  H   3.73215572794858     -1.08034925617428     -0.80893677890416
  H   3.32899211243324     -1.52675124236316      0.84665773417092
  H   2.25495395174498     -3.65202052290463     -0.05144140693590
  H   3.98830482384697     -3.47579751246600     -0.20532952949642
  H   4.28389358571165     -5.07588508512303     -1.44886135890705
  H   4.24679591706017     -4.75188791430793     -3.18346530919052
  H   1.49674565324938     -8.65781950742762     -2.60284099662044
