30
Coordinates from ORCA-job 23841optt
  C   1.03291981625882      0.22049291238784      0.13155652391782
  C   2.55088832880151      0.11202848809029      0.01182758861655
  C   2.93238830420876     -0.13149454015335     -1.45034600172796
  C   3.20153873102222      1.41151464109014      0.50220568598808
  C   4.67352030586274      1.31522004968449      0.80418143508832
  N   5.28693796533130      2.54717782239468      0.95493247889065
  C   6.59543782952296      2.46871030832896      1.22312175071795
  Cl  7.39734194584425      4.04531872022215      1.41852508050518
  C   7.36332652343870      1.34719001915184      1.34869138904766
  C   6.72134722066616      0.08372084489284      1.18804735461638
  C   5.32554521762885      0.11126997876204      0.91597987983898
  C   4.59622175988648     -1.19401661386920      0.72870684499076
  C   3.08302332715533     -1.04042919960489      0.91431212861939
  O   2.79530437919488     -0.76177991254168      2.28254277660660
  C   2.41455777051573     -2.31483839166932      0.60086729867249
  C   1.89168840811810     -3.35614863793418      0.31908088471226
  H   0.69185892770000      1.12966958552406     -0.36992264450523
  H   0.73446820654258      0.26874772124386      1.17935199277232
  H   0.53854417596367     -0.63576596816334     -0.33209638604854
  H   2.41593215147227      0.59376935741553     -2.08307716502356
  H   2.64214291279258     -1.13389563752844     -1.77505400492701
  H   4.00499374366900     -0.00415664432162     -1.60059575389815
  H   2.66956494340643      1.77983779798374      1.38849340087312
  H   3.06355997338619      2.18620715345209     -0.26064968318769
  H   8.41943345287197      1.43311577136460      1.56279416916354
  H   7.25116827846696     -0.85082162812427      1.31221598793425
  H   4.94734597111583     -1.92551068957146      1.46291122029242
  H   4.80147126654406     -1.62047469914141     -0.25866813610759
  H   3.45633111849565     -0.10795209261627      2.55444498302285
  H   1.42719704411599     -4.28170651674973      0.08061892053817
