29
Coordinates from ORCA-job 23849optt
  Cl  1.11047720210503     -1.34584737268456     -1.78021608006158
  C   2.70265333308470     -0.83112345437590     -1.16852774021462
  N   2.73758323369914      0.46032210997154     -0.87434536308406
  C   3.80757528531821      1.05034372320877     -0.31192700473327
  N   3.95739859994935      2.30495859915711     -0.07739613956772
  S   5.20105943319971      0.06695277720533      0.28325943090161
  C   4.92244953075341     -1.47173744817937     -0.49776491418631
  C   3.69501790438886     -1.80071825575506     -1.08178518483397
  C   3.48861332025000     -3.21883481440154     -1.55057475138746
  C   2.95867059896483     -4.17142969018591     -0.45578522030585
  N   3.48723343595982     -5.53854198050973     -0.51073470914945
  C   4.73123908425638     -5.78176745038372      0.20919204071891
  C   5.93528388566504     -4.87127457829432     -0.11170398444176
  O   5.67210568488711     -3.59372052391457      0.39159353663278
  C   6.03772774802212     -2.45408728208597     -0.41023564561179
  C   5.13170306334275     -7.17913440411292      0.00285682718055
  C   5.48803669641521     -8.30410297092922     -0.20719336456724
  H   3.10592856004509      2.77072558521357     -0.39184334586143
  H   4.43794370879745     -3.61094074909039     -1.91999898831554
  H   2.80554656313373     -3.23604461994499     -2.40002938405620
  H   1.87058784369752     -4.22377789020316     -0.53166866558184
  H   3.19694646923214     -3.76313056388530      0.52484999139809
  H   3.57558927981070     -5.85527142188676     -1.46988649409348
  H   4.52166566149007     -5.63691478800118      1.27458052410412
  H   6.09597819583433     -4.85939811638185     -1.19688033204128
  H   6.83443667976125     -5.29757586144369      0.35208515319286
  H   6.32832449751804     -2.82343797430830     -1.40340522214425
  H   6.92065861094748     -1.98735617996282      0.03489829998922
  H   5.78856588947040     -9.30813440383503     -0.38441326987902
