30
Coordinates from ORCA-job 23845optt
  C   3.38275393148740      2.84554686754802     -0.29372571996520
  C   3.16022522790034      1.61599633444010      0.58282407522939
  C   3.92826930396370      1.51530236620374      1.88283322152810
  C   3.34724872545049      1.04134980652445      2.99871374374450
  C   4.21974332336165      0.76372323137126      4.15641250433436
  C   5.46147375490437      0.09765987687206      3.73098002101234
  Cl  6.24051173975236     -1.07510520917338      4.77085815108185
  C   6.07986401207003      0.61221680865365      2.65162631914277
  C   5.39612677299959      1.70112086205540      1.95152454755251
  C   5.98165743377654      2.97747749261712      2.05486724568695
  O   7.28299181949968      2.98076464900123      2.48041922432764
  C   5.32247558676553      4.19760889744899      1.93909546160103
  S   5.71984771615243      5.58962366403830      2.96170249843971
  C   4.54912549236415      5.18027337631390      4.22639315429677
  C   4.74999832541281      4.00285906222289      4.93823601364021
  C   3.82074894812144      2.98678146760390      5.12962100149640
  C   4.38971251633585      1.67705043191380      5.16121872335139
  H   2.93485419632175      2.68675986066778     -1.27731256265479
  H   4.44705255026156      3.04288609455619     -0.42527046780528
  H   2.93033046577612      3.73850285973415      0.13755674695936
  H   3.45089138839875      0.73749465424788     -0.00518289773070
  H   2.09471645785101      1.50122865150927      0.80054030882310
  H   2.27679493265510      0.85925685465348      3.04387185635328
  H   7.09772081467540      0.33286863276619      2.40864014254748
  H   7.48392285482104      3.89359749973799      2.73561404842100
  H   4.28065647740098      4.16658664395982      1.66076778710992
  H   3.52981861391230      5.47838335021000      3.99366259666840
  H   5.79021801321457      3.74181205988450      5.13359274419760
  H   2.83428810506648      3.12352768676656      4.70212505952683
  H   5.28296049932649      1.55084516565070      5.76979445108301
