23
Coordinates from ORCA-job 23857optt
  Cl  1.10227578631569      0.22099483974432     -0.53877900029403
  C   2.80373874181140      0.06840952687404     -0.26686305699043
  C   3.41061237790237     -1.12289943487430     -0.09340034441309
  N   2.72577504498900     -2.34527518204662     -0.14555021515799
  C   3.21261982904446     -3.53009365486555      0.32517803027833
  O   2.48373162799791     -4.50158082405391      0.45518159874240
  N   4.56871647191938     -3.55726369933486      0.62119013396316
  C   5.20398883464803     -4.72747202067103      1.07237179936242
  N   4.73083555975303     -5.85423016430792      1.38029904556523
  C   5.47384267286463     -2.46181845628349      0.24056516508767
  C   5.99644280402126     -2.66302536149491     -1.16815597470382
  O   7.11703625374139     -2.37630245258743     -1.51939995942309
  C   4.79234149200749     -1.14021420484609      0.20456297909739
  C   5.47176861182195      0.08048758572564      0.33895967738546
  C   4.83429633317019      1.31938989890914      0.14151560904790
  O   5.27195689789151      2.44623339431053      0.22525892950591
  O   3.44146028621386      1.25285845367237     -0.22044832812580
  H   1.72878503151579     -2.33881555054435     -0.29471665854960
  H   6.27789690727786     -4.56087820335904      1.16166890323702
  H   3.72288995649112     -5.86788656238452      1.23375751532495
  H   6.32030158683398     -2.43870324195013      0.93165692804380
  H   5.22287913187706     -2.99994251815712     -1.88749874098564
  H   6.52380775989056      0.11302783252528      0.58064596400183
