32
Coordinates from ORCA-job 23856opt
  C   0.87315989216783     -0.50179972108247     -0.52820655243616
  C   2.37111668724861     -0.27586013211359     -0.30003020752189
  C   3.18066154980639     -1.53254646563955     -0.58465823225068
  C   2.99194891264091     -2.41480299514765     -1.66096645583444
  Cl  2.81813743264397     -1.74356835099141     -3.28550092389635
  C   3.08093776855216     -3.82712209294484     -1.57700652609175
  N   3.14601279272075     -4.72665913066314     -2.51121421087963
  N   3.07962729844183     -4.32401366090596     -0.23023411822260
  C   3.42442427348440     -3.53433967526691      0.68007695225645
  Cl  3.58362055300954     -4.24093180374426      2.32351431214231
  N   3.62670819753976     -2.18810663940413      0.62832764454414
  C   4.71405017524085     -1.55528957881257      1.35502502442363
  C   2.86218839143990      1.08738761183599     -0.94437424687863
  C   4.36487419758491      1.04975403235531     -1.25405844440644
  C   2.10856585585591      1.49198198512449     -2.22306635060603
  C   2.62305002969016      2.14605979342940      0.04942019323924
  C   2.43413430597548      3.01097453219859      0.86176472753970
  H   0.54890782937889     -1.35804236823075      0.06467200212253
  H   0.67143470341907     -0.72975630732488     -1.57582205680227
  H   0.28270914818220      0.37114687397860     -0.23393330123211
  H   2.49672835835871     -0.11925307624671      0.77325261127566
  H   3.16064059435815     -4.25686192834139     -3.41334977059093
  H   5.63637133234506     -1.57260603937427      0.76319738063147
  H   4.87975075359294     -2.05321466134632      2.30674267861579
  H   4.45595714472675     -0.51380825439234      1.55080587101959
  H   4.55351811735212      0.30647188031900     -2.02889109357568
  H   4.94016360527621      0.77282726084113     -0.37095282198489
  H   4.69807837230738      2.03208399369120     -1.59535140147371
  H   2.23648539834326      0.73285229716083     -2.99077511450072
  H   2.50708612950433      2.43948719539853     -2.59115430872207
  H   1.04488822985050      1.62616119003606     -2.03192055885114
  H   2.26506196896071      3.76939423560417      1.58666729894770
