21
Coordinates from ORCA-job 23850optt
  C   1.01440435909121      0.02791920429416     -0.14499160153754
  C   2.51730044647807     -0.00831016185156     -0.11294922522031
  C   3.21275537930733      1.17950834163572     -0.11509085162201
  N   2.52914453084388      2.40237028700030     -0.16020422313988
  C   4.65160205462460      1.22794891096514     -0.12297421792355
  C   5.30464499233699      2.44477203536710     -0.10553565221971
  C   5.82312283571615      3.56439408607303     -0.07867225306218
  C   6.41258647172868      4.78299382103791     -0.05232049913398
  C   6.93918994626238      5.88073490495469     -0.02458325764672
  C   5.32943995428866     -0.03304142896223     -0.13203399663061
  Cl  7.05772582857732     -0.00775440902296     -0.16996677400417
  C   4.63727244094806     -1.22697759142444     -0.10007736295471
  Cl  5.50637961642689     -2.72720787692611     -0.08194095766781
  C   3.23866485072523     -1.23287305912949     -0.08281830988218
  Cl  2.37214823374915     -2.73716971404244      0.03390993691008
  H   0.67164208101058      0.82797507879786     -0.80439945092999
  H   0.58790484925612      0.20915069440320      0.84879393480837
  H   0.60232723395315     -0.91130385736629     -0.50553295939906
  H   1.67851245339632      2.42242755718733      0.38128634841453
  H   3.12982266296127      3.18718659065941      0.05515546195043
  H   7.40440877831792      6.83425658634965     -0.00405408910901
