24
Coordinates from ORCA-job 23867optt
  C   2.55480572320848      2.25738393313619     -1.24087947723862
  C   3.02429147469725      0.92054971431797     -0.78588016612240
  N   2.31174890943351     -0.17113965183593     -0.72626377612891
  C   3.16432884976320     -1.15789187642392     -0.28058227058966
  C   4.41175533257293     -0.63334615812053     -0.06618832554906
  N   5.55271257340065     -1.23179162404954      0.44404798208026
  C   6.85574306627569     -0.78570954359948      0.29353185300834
  C   7.95764594849580     -1.54936951788216      0.46302758956993
  Cl  7.76777122237317     -3.23704087596635      0.81668128484009
  C   9.26170718620664     -0.96127355712771      0.37220435423406
  C   9.33176911758770      0.42705225998567      0.07873423985202
  C   8.20406570966502      1.21811644199786     -0.11338481253670
  O   8.06869762876341      2.40155395942291     -0.36955601981155
  O   6.93102664120412      0.52909821666926      0.01728985643229
  C   10.41764707334193     -1.72910471096460      0.56676534908839
  N   11.38564057481864     -2.34819631363672      0.72968109146518
  N   4.31119005983413      0.69333615162357     -0.38559946578503
  H   1.49228148458220      2.18953090257703     -1.46245483975410
  H   3.08261006643266      2.58033710037457     -2.14077395813887
  H   2.70850542367394      3.01911006331436     -0.47387393160528
  H   2.84131372867738     -2.17479213876806     -0.13101566755689
  H   5.46896608428912     -2.21866127504977      0.62594956301399
  H   10.28809969553007      0.91833180878679     -0.00756011675195
  H   5.08967642517219      1.33691669121859     -0.36590033601554
