26
Coordinates from ORCA-job 23871optt
  C   5.43003180214810     -0.07932476751557     -2.37600984579091
  C   5.72309783659464      0.54883137308370     -1.00836700385366
  C   4.52392845222363      0.49528629061622     -0.11992537975511
  C   4.49188565075377      1.18514253850464      1.02914953016208
  C   4.42556436889701      0.20060761368607      2.12425240600702
  C   5.65663064448986     -0.11404455784045      2.55934991088317
  C   6.19561087967921     -1.41955429823134      2.03491808691332
  C   7.06156719009199     -1.12272846277721      0.76352374079081
  C   8.20046709386143     -1.86826000739352      0.79683825624138
  O   9.16399389247447     -1.90820052130746     -0.16334913950803
  C   9.29206343329038     -0.81578136442645     -1.02937612150227
  O   10.33973582273064     -0.74276832204047     -1.64810192308625
  C   8.16012405854097      0.01995883010661     -1.06235354311005
  Cl  8.38614312819230      1.42910630179145     -2.09044516788109
  C   6.94238821221355     -0.15161397053615     -0.32781565569299
  H   6.31959398137530     -0.09170470346466     -3.00298691641853
  H   4.64132802122153      0.47534885199203     -2.89187677446610
  H   5.09530652988441     -1.11105449365017     -2.23819749513817
  H   6.01160977987186      1.59195618646062     -1.16002306200789
  H   3.98669105015933     -0.45249545261903     -0.15470419988356
  H   5.12943840950028      2.05612637364312      1.14565213162463
  H   3.72210646839885     -0.61223626848990      1.96447793312921
  H   6.39638890349867      0.68158217775338      2.60151652831904
  H   5.36276838818768     -2.08318284361611      1.79004609668871
  H   6.85077375109875     -1.95278059224343      2.72447873992546
  H   8.44176225062124     -2.53021591148589      1.61732886740979
