27
Coordinates from ORCA-job 23879optt
  Cl  1.02723366886632      0.30193863075570     -0.62331582755573
  C   2.73353633932703      0.13415958488841     -0.33388452404838
  C   3.35537271497890     -1.10906460839946     -0.55372003094538
  N   4.66540289393392     -1.26934311750229     -0.43951560013790
  C   5.41782698276639     -0.25357263602802     -0.05011157137321
  C   6.89609604724991     -0.38857570783415     -0.21561466995354
  C   7.77710379380988     -0.34764264237396      1.07883091941648
  C   7.06485625916811      0.26086463264204      2.29480625605860
  C   6.55106905698159      1.67136585133345      2.09896998582890
  C   6.93467384659440      2.50990177603749      0.89708666713165
  C   5.52752152338081      2.00151902888304      1.05641983460819
  N   4.86466538474432      1.02338876539295      0.24635392811961
  C   3.45725763215545      1.27068855278696      0.06552015036157
  O   3.01399676216899      2.40270192502416      0.27669699421149
  C   8.26390767509344     -1.68301366923745      1.42755678981386
  C   8.65595982894169     -2.77960541573415      1.71682699450932
  H   2.76439715175286     -1.96827141066929     -0.84938687799529
  H   7.26923413537449      0.38004796926772     -0.90319897803506
  H   7.04514332364031     -1.34871617390512     -0.70402004815414
  H   8.66272029121791      0.26149530290361      0.87215957410361
  H   7.76638084998819      0.24653380146930      3.13287128028637
  H   6.23185699937186     -0.39399795116679      2.56456846920952
  H   6.43487337371553      2.21057679294309      3.03226855575691
  H   7.58176853251354      2.06606982770829      0.15628092802949
  H   7.08978909109948      3.57168749994107      1.03798886248627
  H   4.81026097315755      2.76215487402870      1.32266304274579
  H   8.98909486800705     -3.75729148315534      1.96589889552099
