30
Coordinates from ORCA-job 23876optt
  C   0.82020670135147     -0.13185280366486     -0.14165175134081
  C   2.32280999066313      0.01930079777854      0.06039109759761
  C   3.09663999746757      0.07816324548774     -1.26905456022221
  N   2.62303667338780      1.13678968659000     -2.17994229461610
  C   2.83360652119753      2.49366208968697     -1.69986587385353
  C   4.60536131698469      0.13355914984953     -1.09110839908446
  C   5.46694300533931     -0.33472109858463     -2.06376760019824
  C   4.89608165293758     -0.87472405769572     -3.35573592383275
  C   6.87116595504222     -0.35924507622257     -1.90487802384040
  Cl  7.91181922338529     -1.02258396224339     -3.13008535728593
  C   7.47557229664138      0.11146381791970     -0.73799450254802
  O   8.79776299064453      0.11297698451291     -0.45706549899719
  C   8.92352673382542      0.69192445318603      0.84485537529030
  O   10.03016988211451      0.80224283381749      1.32357363347470
  N   7.70027105169381      1.02275548837769      1.31700548870019
  C   6.83628856596472      0.66271402289569      0.34907608705784
  S   5.11766604874133      0.85500908342420      0.44780112354315
  H   0.31398463445085     -0.30517537228448      0.80895746015243
  H   0.59239881317087     -0.97347669734649     -0.80134534769307
  H   0.38381065201488      0.76722005944893     -0.58232498149181
  H   2.70989774652061     -0.82382579809261      0.63665409804463
  H   2.51556194971446      0.90975247046158      0.66178552292515
  H   2.86488102826654     -0.86053058643288     -1.78310465793894
  H   1.63987190714581      0.98699383687359     -2.37699508107770
  H   3.90323954531190      2.66569386252816     -1.58219703778481
  H   2.35362661544098      2.71503999953330     -0.73570955792922
  H   2.45334836849426      3.19873756269314     -2.43985455439849
  H   3.90860352254579     -0.46807470301157     -3.55188659583704
  H   4.84569387230124     -1.96730384769940     -3.33133090546539
  H   5.54115273723946     -0.60548544178657     -4.19020138134984
