26
Coordinates from ORCA-job 23887optt
  C   1.16747546557201     -0.05531692524234     -0.18989029323818
  C   2.66513108755329     -0.02886222685851     -0.11574098813415
  N   3.29831389659430      0.57718925372107     -1.15351981334077
  N   4.67608966765577      0.57498962105553     -1.10303421899801
  C   5.27182698907625      0.04168940541123     -0.06926514790262
  C   6.77001974453704      0.14924285332898     -0.07575802014908
  O   7.33703695208087     -1.16758254692198      0.04255288256205
  C   8.65313306683319     -1.24609498160671      0.07318813878277
  N   9.44762692562901     -0.26710051166231     -0.01259437771745
  C   10.83843450691080     -0.55663476009833      0.03449053950013
  C   11.73604980044556      0.25097945659997     -0.85519836703783
  C   11.73569892689933      0.48748962860467      0.62717775632283
  N   4.72804196353696     -0.54662702451956      1.01560173703080
  C   3.37642866286312     -0.56998129623289      0.91766622904750
  Cl  2.53155344364266     -1.35152457025301      2.25126061536555
  H   0.86164329568208      0.41805634075433     -1.12164583142316
  H   0.71721557385026      0.47710803045165      0.65094495611964
  H   0.78706181801485     -1.07853119550842     -0.16158631935903
  H   7.11944495446348      0.74039354676971      0.77404521872715
  H   7.11115081683719      0.60485692898942     -1.00327569858045
  H   8.97712432824935     -2.28581652384816      0.18212086364957
  H   11.12299343917624     -1.59482835984471      0.19947853463303
  H   11.24175243006656      0.98398308262847     -1.47628859850000
  H   12.59110600751881     -0.23896902527842     -1.29950445222158
  H   11.24104540077367      1.37828029138078      0.98650757602224
  H   12.59260083553722      0.16361150817953      1.20126707883906
