26
Coordinates from ORCA-job 23883optt
  Cl  3.37562341813254     -2.06393010205620     -1.30657237116186
  C   4.68566649568057     -1.00198799817656     -0.81049507601665
  N   4.33620211575628      0.16876557045005     -0.32860554111249
  C   5.36415479814671      0.94575659767223      0.01522021866087
  C   6.72116034959558      0.65307816491077     -0.06383600327469
  C   7.63699613872076      1.77366598709384      0.38919073262403
  C   7.53287879642189      3.04925324249404     -0.50415191658547
  C   8.04407542736305      2.75191758368283     -1.88321533824435
  C   9.46071625994359      2.49214480560548     -2.00591066568955
  C   9.81303584305818      1.19020390610989     -2.07446801329100
  C   9.91588068636266     -0.07132909473568     -2.01588670537472
  C   9.64638038021929     -0.72571346954064     -0.68175395483367
  N   8.28152537839736     -1.26798696685207     -0.58163275384037
  C   7.06178230853668     -0.64242194020059     -0.54129700263916
  C   5.97389293828994     -1.45188150513346     -0.94545460990678
  H   5.08599549459013      1.91901177405209      0.40863028122398
  H   8.67758855292678      1.46698768679538      0.38854309614823
  H   7.37552171839816      2.03223204520385      1.42119599320781
  H   8.13772057591785      3.82961548134669     -0.02941256835744
  H   6.49561812972405      3.39750825059279     -0.51385700179322
  H   7.40677990723421      2.07794411916793     -2.45190223604978
  H   10.18635247059063      3.24907322685552     -1.71766338898320
  H   9.81655970709884     -0.05712754295175      0.16820590390992
  H   10.28806335314800     -1.59451837756111     -0.51519483591330
  H   8.21900086744749     -2.12877699314681     -1.10420919769641
  H   6.15882788829861     -2.43848445167854     -1.34846704501072
