25
Coordinates from ORCA-job 23880optt
  C   1.13059175031864     -0.35463332218785      0.72377050562293
  C   2.37888704128699      0.12601119947649     -0.00166547996002
  C   2.96205268753582     -0.89757538584496     -0.98199656611632
  O   4.11836646705705     -0.23676251381344     -1.61754156535179
  C   1.97884207124883     -1.29473907906506     -2.07954689023078
  O   1.32656106211877     -0.52181720367744     -2.79677956192387
  N   2.00130241873284     -2.66920316366599     -2.20357155074382
  C   2.79504413301594     -3.26134338512777     -1.24972225973281
  C   3.34047343440044     -2.22642988507762     -0.42776283753924
  C   4.05985306109507     -2.62109883876270      0.68784384359782
  N   4.27284801028660     -3.89399959599862      1.00956113138585
  C   3.76358915808015     -4.82857413127321      0.19167340475869
  Cl  4.14290790551340     -6.50157933891268      0.60926859158878
  C   3.00624164595099     -4.59516668477201     -0.95450372452740
  N   2.42918579579356     -5.61170695432679     -1.74685804047024
  H   0.75695863087799      0.40884116848919      1.41008544386077
  H   1.34150720667861     -1.26014470806455      1.29465201844271
  H   0.34096052992817     -0.58464793183621      0.00553563822519
  H   3.16828057757871      0.38138756103881      0.71074848418944
  H   2.14943115364942      1.03063284569948     -0.57221175358679
  H   3.74020586366719      0.37396146676457     -2.26366325320286
  H   1.40709823435691     -3.15190745815368     -2.85590555617743
  H   4.48599814963618     -1.88365388791423      1.36325829964698
  H   2.79093589299986     -6.52211624230536     -1.49608026301804
  H   2.59687711819185     -5.44373453068833     -2.73158805873776
