23
Coordinates from ORCA-job 23894optt
  Cl  3.91887846855614      1.57853912499458     -2.42628322348584
  C   3.88342069866580      0.78793161263595     -0.89044503939645
  C   3.07995318070254      1.14620761980921      0.13788792302963
  N   3.09352546546494      0.46737327970908      1.30901505993311
  N   3.93083516989574     -0.56683442498075      1.43334149106849
  C   4.77705784933248     -0.91923865359656      0.43027197597971
  N   5.64752921074128     -1.85374729399444      0.46314393399658
  O   4.75206728709574     -0.23774338008768     -0.80351765748825
  C   2.11722885169556      2.27089874200959      0.02980719040286
  C   2.05619255322091      3.28918101510421      1.10221068847650
  N   2.65645993526679      3.62973625147274     -0.18874607839912
  C   1.86417392895379      4.39244305290969     -1.11469017331065
  S   0.23020155434890      3.61000660117127     -1.24848059084774
  O   -0.25349238457889      3.60653684008308     -2.60561792430703
  O   -0.62977467980452      4.13859623997404     -0.21365304621600
  C   0.84787073063407      2.00146088034929     -0.76068671448264
  H   5.57994426099441     -2.27509691750299      1.38594186875878
  H   2.77144838579126      3.18823800268859      1.90606539739852
  H   1.09268498863850      3.71382941728456      1.35627384727561
  H   2.31205080692068      4.34887815224632     -2.10834155988972
  H   1.70985043013672      5.42262196983360     -0.79545769497670
  H   1.06774270725514      1.44525095772290     -1.67187759554643
  H   0.07715060007200      1.50193091016371     -0.17716207797322
