35
Coordinates from ORCA-job 23893opt
  C   2.66920745761271     -3.10897249872340     -0.16667125258842
  C   2.24926570862158     -2.25672029113251      1.02525031718876
  C   2.90724372896503     -0.86665130538208      1.13931904973973
  C   2.50401660298561     -0.01790281519816     -0.07467510124501
  C   2.33366077380234     -0.20383032914612      2.39644282358612
  C   4.46053481510799     -0.99127161554425      1.19963058712492
  C   5.16517016891501      0.36456430954136      1.10673558741378
  O   6.57443570488623      0.25241403812019      1.17094728331882
  C   4.94632246837839     -1.79953142320587      2.39619103899257
  C   5.27184918069800     -1.16890417004866      3.60229339241549
  C   5.66949717500162     -1.99706608466333      4.69790510554218
  C   5.74339899475770     -3.34069273012069      4.49529530831568
  Cl  6.23052759585858     -4.37161583627701      5.82071427893386
  C   5.43933505473088     -3.92688298248131      3.23752210366630
  N   5.03506314587077     -3.10034113558172      2.18812697947850
  C   5.51810972695289     -5.30663492392271      2.99876853379407
  C   5.57789921514656     -6.49709387983750      2.76545869548981
  H   2.04593195128418     -4.00358309343828     -0.22277594898624
  H   3.70177006239323     -3.43621199849890     -0.04977218292658
  H   2.56304280700563     -2.57410504553532     -1.11374995431151
  H   2.46212670532670     -2.81753129678785      1.93729696275399
  H   1.16522136773015     -2.09265677202013      0.99375321531193
  H   1.42696638707501     -0.10020997079440     -0.24546193509749
  H   3.01740209292138     -0.34155205250761     -0.98262169373043
  H   2.73371495292413      1.03780889082797      0.08243101611847
  H   1.24862941658343     -0.10718596654356      2.29650262295432
  H   2.74252369344557      0.79598665206349      2.55620878666274
  H   2.54843653897660     -0.80069806753868      3.28291465642539
  H   4.76887402733151     -1.56087878894189      0.31866111684729
  H   4.80616224320354      1.04831860102083      1.88601716047092
  H   4.95232009818392      0.82917143478015      0.14374188684508
  H   6.77040605938079     -0.29026951746632      1.94834002648741
  H   5.14646394383465     -0.10283065956696      3.73404330311968
  H   5.90986849837614     -1.58105746823946      5.66671226405107
  H   5.63860163573140     -7.53738120720929      2.56350396583675
