26
Coordinates from ORCA-job 23908optt
  C   2.97896073354415      1.36067152681249      0.29519011175858
  C   2.49670424032023     -0.02966946839506     -0.09306481688963
  C   2.96842629925791     -1.12349004179360      0.90510358450032
  N   2.30148351673801     -1.03049517476342      2.21186901554023
  C   2.45440774198320     -2.42862280139803      0.40598077142195
  N   1.90052468941414     -3.38667322377307      0.10640931160788
  C   4.49955572012023     -1.12370283236204      0.99813935976249
  C   5.20856328562942     -1.63317556958988     -0.10563524901617
  O   6.60278691138778     -1.66628042298847     -0.13996248678113
  C   7.34613149255208     -1.11561053370670      0.86118732285173
  O   8.57267788367373     -1.14836324749593      0.77490269269957
  C   6.65689584288940     -0.53502326128445      1.93967008686438
  O   7.43499251440451      0.02288664465165      2.91973178908009
  C   5.25993353329595     -0.53939282430742      2.01194153418867
  Cl  4.63268575378848      0.33072907029470      3.38976023143568
  C   4.65284150660586     -2.10160395067086     -1.29826766199631
  C   4.19062890800560     -2.46684479330302     -2.35819687634274
  H   2.57880409607383      2.10385939166183     -0.39580867726962
  H   4.06767079084772      1.41394240300020      0.26215200094890
  H   2.66285274105536      1.63730744639708      1.30295327061037
  H   2.86080780319995     -0.28662642451387     -1.08824131223533
  H   1.40317151230217     -0.06506633307655     -0.12314221277527
  H   1.30153675680550     -1.11155468893353      2.06406236405614
  H   2.49100278191897     -0.14063507741975      2.65009604148384
  H   8.34041470214919     -0.14129288247403      2.61073326286152
  H   3.76153824203644     -2.91827293056828     -3.21856345836619
