25
Coordinates from ORCA-job 23903optt
  C   1.18773718048566     -0.00162917410002     -0.50695921608100
  C   2.62978429796313     -0.06126704114135     -0.03025098007742
  C   3.16221567706982     -1.47919595481096      0.16328081731781
  O   2.22901489832925     -2.52208528372189      0.02155169104902
  C   2.76071993280169     -2.25396590562331      1.34773245890670
  C   1.93091646417140     -1.59805040007293      2.36012296685181
  C   1.89171620752838     -0.20048992969214      2.58661557050876
  C   1.20972193428411      0.41519962847682      3.66024733731974
  C   0.71189188740175     -0.33853332119759      4.67020376592430
  Cl  -0.21172699892120      0.34047978647557      5.97030382396500
  N   0.92003493980418     -1.72696919038778      4.74539970512980
  S   0.82528167749131     -2.53454630432061      3.24714644769517
  O   -0.53950238326618     -2.39975923954596      2.79642605724151
  O   1.31091030017856     -3.87430111004661      3.46390777514584
  S   2.83566295740322      0.80130713041144      1.53232638599681
  O   4.25301340345971      0.72935272653036      1.82636293418388
  O   2.24825224543932      2.12239245882404      1.44483805003375
  H   1.10001122349361     -0.49878484832054     -1.47330454152591
  H   0.87248193929591      1.03692440096067     -0.59703001169326
  H   0.53356700803124     -0.51894521740156      0.19434689398781
  H   3.28935941995201      0.49362588699073     -0.70067182962686
  H   4.13868634523152     -1.66900558528241     -0.27025347831480
  H   3.40703580323186     -3.06247212542260      1.67368720291337
  H   1.08470915874139      1.48819781510785      3.66799816108223
  H   0.33450448039830     -2.19847920268921      5.42597201206585
