27
Coordinates from ORCA-job 23904optt
  C   3.73768579557134     -0.36641650167717     -0.92584292304812
  C   2.54531832755061      0.01456719433628     -0.03046427589284
  C   2.46889992402934      1.55007529771630      0.06931040963157
  C   1.27540801485514     -0.41861404772160     -0.63948838038573
  C   0.24066708922583     -0.67941732132575     -1.18445966332063
  N   2.67309903959814     -0.52234419055229      1.32420592373436
  N   3.72017450192438      0.15960920587782      2.05393747252085
  N   3.70709886279674     -0.05863580997217      3.33718816978710
  C   2.96813155968978     -1.03875418356875      3.90137483777171
  O   2.75870535880699     -1.09745457713097      5.13217881681296
  C   2.57249987782309     -2.16044523186657      2.99740365737895
  C   2.47846080415713     -3.54448189897684      3.51836068504875
  C   3.39762490609484     -4.02568666065581      4.57998646805052
  N   1.98882266821008     -3.79969869081025      4.87623547759757
  C   2.47578931233306     -1.83202838918316      1.70166575390011
  Cl  2.26682545806818     -3.07596724779614      0.45937216300999
  H   3.65246144619133      0.13273243669739     -1.89237549171296
  H   3.78166134854253     -1.44116371606314     -1.08564995290643
  H   4.64746893175814     -0.03776469202161     -0.42343654405344
  H   2.24926258785442      1.95703655071255     -0.91803047498711
  H   3.41362321687999      1.93937853034897      0.43877817285774
  H   1.67696014209008      1.83139583739123      0.76186769289994
  H   -0.67921300488361     -0.95013088074143     -1.64227929664988
  H   2.13620495236429     -4.27222281916672      2.79477994169001
  H   4.10575892975003     -3.30699513109965      4.97471122939109
  H   3.71840728931448     -5.06106460002617      4.57214023186127
  H   1.93619265940357     -2.88850846272432      5.33552989901259
