26
Coordinates from ORCA-job 23912optt
  Cl  1.38151783483422     -0.59438775728342      0.87363810206826
  C   3.04079931219322     -0.35641417514772      0.42177362113794
  C   3.71540589385801     -1.34048927342273     -0.30694420210081
  C   5.03696352013339     -1.17040983218813     -0.68684099611734
  C   5.69168134541796      0.00233738492042     -0.32837978066174
  C   7.09999557754447      0.38817316726837     -0.43265958100300
  O   7.97006826330985     -0.00900217956872      0.71708647748710
  C   7.83639689484123     -1.33513942921671      1.08617523451449
  C   8.18741758244940     -1.66188690467147      2.49880406761060
  C   6.75289950989310     -1.71993753446232      2.04144624456814
  C   6.98743397798535      1.89158373318083     -0.32610081991961
  O   7.75259354459889      2.71827542589689     -0.77703522266501
  C   5.72376294139338      2.20043964841271      0.46660386123659
  N   4.99595948652274      0.95324147299342      0.43738652482688
  C   3.65275992452774      0.88304616358266      0.79483839587651
  O   3.12314741075210      1.83606235273159      1.36755596499380
  H   3.18105279608077     -2.24329909205598     -0.57550274599511
  H   5.56721067604974     -1.93964530795605     -1.23178653206361
  H   7.60577578176783      0.03934829953077     -1.33570703455589
  H   8.10139955910360     -2.05763798260180      0.31600732999476
  H   8.47894304813491     -0.82182879350656      3.11350576498803
  H   8.70762756076696     -2.58801989982786      2.70129822398039
  H   6.09288710459053     -0.92006234386077      2.35023998147428
  H   6.27841860985751     -2.68374289149097      1.92056187423580
  H   5.14404500929481      3.00373309766966      0.01053742823833
  H   5.98183683409810      2.50266265107392      1.48449781785021
