32
Coordinates from ORCA-job 23925optt
  C   1.12496060043634      0.39951538330390      1.10639038109678
  C   2.53913669383002      0.86289345790998      0.77983594407683
  C   3.57783952150917      0.27621215885867      1.73068310351900
  C   4.97113721822020      0.71577919654478      1.35403527008182
  C   5.41999226856326      2.04293292115192      1.84429162041079
  N   6.03427103920789      0.83114234653584      2.33527498238760
  C   5.83577144384823      0.39069255114026      3.67294186861817
  C   5.89842618382258      1.30245577096496      4.74754198113323
  C   6.28595824381801      2.74896604806112      4.58120811670460
  C   5.71106999826658      0.77678511184883      6.04283230674354
  C   5.48477633226225     -0.55079669234988      6.28084557456670
  C   5.46237625509768     -1.50859356614867      5.22408733252013
  C   5.26291841402032     -2.88630432781336      5.52689420424863
  O   5.09029839448685     -3.34094302135203      6.68512142353812
  C   5.66727709945313     -0.96468217524373      3.91982788558151
  Cl  5.78352928585046     -2.07354953589595      2.56486681701327
  H   0.38982023703281      0.83142533093477      0.42484543928225
  H   0.85147782575825      0.68349940584754      2.12427204339783
  H   1.05013565398137     -0.68749148610695      1.03936525671875
  H   2.59144156582865      1.95523427185728      0.82055030547389
  H   2.78925930074078      0.58190061577273     -0.24838265155616
  H   3.51612458311658     -0.81400879254553      1.72084231178519
  H   3.36860970795034      0.59142855716773      2.75676431935572
  H   5.31379580095207      0.36776712164877      0.38321215384452
  H   4.71995746883505      2.55758810802831      2.49398162882694
  H   6.05844359345734      2.68737883413356      1.25015389664276
  H   7.01371121766681      2.88708309231481      3.77851558319774
  H   6.74789458901795      3.10399372810986      5.50506773856674
  H   5.44554340595382      3.42153094615285      4.37155999476620
  H   5.76207058796541      1.46388772203474      6.88317951653264
  H   5.34369563937907     -0.93125156324026      7.28427238256168
  H   5.26527982967064     -3.57747151962685      4.67112126836253
