27
Coordinates from ORCA-job 23922optt
  C   2.29857221502847     -1.07410469702759     -0.74511295611395
  C   2.48707763386957      0.13725224627498      0.18150341228099
  C   1.10124123453772      0.72886465869010      0.45992925035076
  C   3.13888816636202     -0.34586059183360      1.48337424095118
  C   3.42551518988537      1.13159511852259     -0.52921164804129
  N   4.36185019684930      0.65861161758835     -1.24210554580917
  S   5.22113139927469      1.74556905417247     -2.21575244575448
  N   4.07597145301894      2.90132321016576     -2.64829322004156
  C   3.19610593112500      3.18415403512866     -1.77330578394194
  N   3.14300199176212      2.52597435418749     -0.52262939647510
  C   2.70715991717022      3.20275720884143      0.64931576133357
  O   3.02579609218527      2.74222426607199      1.73589352633387
  N   1.95983562340116      4.31464837148812      0.47623268340120
  C   1.66854356061411      4.71442683507721     -0.74031003980534
  Cl  0.53429480968170      6.05517700395561     -0.82792452402626
  C   2.17526675913174      4.23749687361503     -1.97913646939357
  N   1.90397817779789      4.63738321142907     -3.19503305606307
  H   1.64083130369596     -1.79670147471245     -0.25598023763861
  H   3.25106216549545     -1.55092773946719     -0.96619412405980
  H   1.84305418761644     -0.77313431350314     -1.69034478966770
  H   0.43534692498115     -0.08155963254183      0.76451826134343
  H   0.68152140101735      1.18972021681174     -0.43732274655292
  H   1.11868188436337      1.46625695066909      1.25813503501084
  H   2.49965529320696     -1.10451515914787      1.94312359028190
  H   3.27459518239574      0.48100207828108      2.17665160358317
  H   4.10909525918402     -0.79756522110448      1.26796833003615
  H   1.21992604634823      5.39093151836734     -3.14598871152231
