32
Coordinates from ORCA-job 23921optt
  C   0.59663268750016     -0.31467066876619      0.08653061549534
  C   2.10354354917385     -0.01851777675404      0.02398154833870
  C   2.39459892151668      1.06666140529324      1.06813557811567
  C   2.92538549603564     -1.25988526425870      0.46722579540302
  N   2.67238439314168     -1.65283379751005      1.85976234027229
  C   2.56347728335472      0.32046928959812     -1.40666804190620
  C   3.00308831161501      1.56104304873564     -1.84708132290777
  C   2.70199253544699      2.85059568594085     -1.13920483639580
  N   3.78478844632979      3.50482086436560     -0.58473902657039
  N   1.53762024837481      3.36128784885783     -1.04994372627570
  C   3.72448846792710      1.71560949991594     -3.06885158388197
  N   4.03250117426691      0.63857635449139     -3.88375904846956
  C   3.49985765910322     -0.50781969740947     -3.53583693920831
  C   2.76809294534264     -0.74118074346499     -2.37712909728980
  Cl  1.78289901856103     -2.21737548407514     -2.43424530881254
  C   4.14753423069423      2.98283945597220     -3.52430958494783
  C   4.55798512282807      4.05959367674731     -3.90492779921703
  H   0.33587326955141     -0.67116881805755      1.08518141183330
  H   0.29750578606887     -1.06464458169178     -0.64177843383951
  H   0.03863536310909      0.60276506573819     -0.11327754260509
  H   2.12939543646518      0.67400546109249      2.05123918918328
  H   1.79891845328109      1.96133773218962      0.91522364136601
  H   3.44756056502914      1.35550779844079      1.06756062005313
  H   3.98105660735082     -1.02905594897008      0.27901831671606
  H   2.66615511967947     -2.11280746294778     -0.15176363019245
  H   3.20222169944329     -1.07678390573024      2.50133937537679
  H   2.97658086859706     -2.60694960923708      2.00372565876531
  H   4.65160276328415      3.33318247277912     -1.07436030069093
  H   3.60482669291900      4.48825061840432     -0.43937282399306
  H   0.86711737643548      2.72903204040882     -1.47951569677619
  H   3.65179116189609     -1.34190328725454     -4.21914948028819
  H   4.84488834567723      5.00901872715610     -4.28400986665056
