25
Coordinates from ORCA-job 23934optt
  Cl  1.00323443403908     -0.20569403260721     -0.18017299731049
  C   2.75309919262110     -0.11699977727913     -0.06225643325247
  C   3.45323018408505     -1.19534198771625      0.42764504891591
  C   2.81971986825809     -2.44360468929754      0.95630710782896
  C   2.77578584012172     -3.57088091408604     -0.08981884769916
  C   4.10139520088765     -3.63236794917830     -0.87036739787769
  C   5.27782338165180     -3.48758256759038      0.04204582573245
  C   5.61992825801876     -2.30034618194499      0.61606473352871
  C   6.74977604713703     -2.24280265577969      1.55849083215376
  O   7.48947685056266     -3.18305742765176      1.77846690889780
  N   4.85685144843234     -1.12851196383607      0.45176096630259
  C   5.56157472199909      0.09488238017882      0.14374058370829
  O   6.79105667470030      0.10597490463122      0.27007984836727
  C   4.76146326311020      1.15863632839623     -0.31990349831770
  C   3.37727550405294      1.06298696431442     -0.45350520303225
  H   1.81255868197407     -2.21888488288273      1.30306367860371
  H   3.40058874077742     -2.77645420763421      1.81977776193310
  H   1.94570822028073     -3.39195546110829     -0.77851167999950
  H   2.58980526039202     -4.52512034172044      0.41055373740073
  H   4.10407325833317     -2.81433741347243     -1.59763906401170
  H   4.16086829244650     -4.56338647053851     -1.43703371478806
  H   5.84328912561891     -4.35562509868538      0.35518434923106
  H   6.85110790225219     -1.30220580780988      2.11483099218099
  H   5.29440749056144      2.05351680253140     -0.60792194080423
  H   2.78890215768563      1.88016245076717     -0.84688159769204
