25
Coordinates from ORCA-job 23933optt
  Cl  1.11566427474177     -0.28421023561629      0.76564251658426
  C   2.73609206136378     -0.13182797340863      0.07126531935445
  C   3.50182048498460     -1.29797104891846      0.04824815819630
  C   4.86427996529435     -1.21200351384321     -0.08977501433059
  N   5.54111305877821     -0.02382375501813     -0.12072657404933
  C   4.82855495785508      1.09041549225015     -0.09053738217469
  C   3.39425498953426      1.14578953900689     -0.04738483165970
  C   2.70948117645615      2.38922754495613     -0.23305843360440
  N   1.45625815480388      2.67093157389608     -0.42710613651248
  N   3.53126093826756      3.54117362052521     -0.20199722572512
  C   4.87825381463803      3.52185180297107     -0.18220372325585
  C   5.57041140208904      2.34406172204417     -0.12228773873491
  C   7.00607005443595      2.41858509371973     -0.26739536463266
  C   7.66069299366284      3.58216147446114     -0.16842114985941
  C   6.88910223594993      4.81267330509811      0.22617478529310
  N   5.53720216680570      4.73146259201160     -0.32091845942451
  H   3.01863295830929     -2.26172117427438      0.15529265212796
  H   5.46837346676998     -2.10939866978585     -0.16316172725469
  H   0.90185275733154      1.82517276975156     -0.43339654190270
  H   3.01856062809765      4.39651502525375     -0.35150641553593
  H   7.51802470101674      1.49059704704708     -0.48843480156982
  H   8.73134228896356      3.65763108377533     -0.30335422265173
  H   7.35584416401800      5.71831319209448     -0.16440332780097
  H   6.85876445439620      4.90385342179324      1.32703846636266
  H   4.96109185143580      5.53654007020919     -0.12859282723926
