27
Coordinates from ORCA-job 23932optt
  C   3.76171255450219      0.45629275198375      2.31651632890846
  C   3.25319537575928      0.08779388232043      0.92541411362366
  N   3.67669223438168     -1.22071396387062      0.48834988437563
  C   4.99029882963486     -1.40663293303174      0.12928999365262
  O   5.75771581828358     -0.48383258252293     -0.13186833898550
  N   5.36700476327179     -2.72105036838645      0.06771948115534
  C   6.61116880783834     -3.19429633978517     -0.32414092030047
  C   6.53834523862734     -4.57400294702232     -0.21094080276447
  C   5.20475560460734     -4.85174876215862      0.26123634912295
  C   4.83758212164951     -6.19522740340253      0.48164607507899
  C   5.78324337552127     -7.18097922790766      0.23156329993204
  C   5.45721064906320     -8.63398767026397      0.45406987458266
  N   7.02767344105962     -6.93396940631220     -0.21268458567507
  C   7.36989100080617     -5.67589956070668     -0.42082712859392
  Cl  8.99991325921581     -5.37604461691610     -1.00417838685338
  N   4.49650798365646     -3.74134614941397      0.42685795633446
  H   3.43377494172275      1.45864720807991      2.60111498131310
  H   4.85165108912938      0.43182233235950      2.32025181957130
  H   3.39585479410480     -0.25248933332989      3.06148712923358
  H   3.62379291677870      0.81259057614488      0.20047252695209
  H   2.16209129144228      0.11522495351749      0.89606245583761
  H   3.22322689098981     -2.04814157817489      0.84961345394052
  H   7.38720285736170     -2.51852670312946     -0.62978019529861
  H   3.84906306575379     -6.45004854031235      0.83938975470258
  H   4.44854851870230     -8.75703090358861      0.84917871771461
  H   6.16638049000568     -9.07724488174957      1.15602020596894
  H   5.53750208613025     -9.19115783242015     -0.48183404352975
