28
Coordinates from ORCA-job 23941optt
  C   1.17368501484693     -0.52800589397889      0.63021965086768
  C   2.48875841797035     -0.09827865453777     -0.02488378608429
  C   3.57609848521498     -1.12417690047402      0.29371773173760
  N   2.24754811140003     -0.02223834172619     -1.48514987261366
  C   2.88452207833482      1.28052523706517      0.48561563655193
  C   2.35375729191412      2.42752170544864     -0.04936231816908
  N   1.45341503766991      2.65518249784070     -1.07980283307229
  C   1.07738941209305      3.92966213166228     -1.45640059216110
  N   1.44589075160762      5.04029931533820     -0.88291267059657
  C   2.29846765106817      4.88251572848525      0.18153963443709
  C   2.91580422400313      5.70421431610715      1.10043086364328
  N   3.68014696482070      5.00292657381432      1.99369941792811
  C   3.55292037303885      3.72054330754340      1.65055753678586
  N   2.73145177029470      3.62227954366195      0.54754120771654
  C   4.02350611476617      2.48479105225671      2.12416149094752
  Cl  5.05869893135094      2.46683340336477      3.52930200752382
  N   3.71408787111044      1.31570538340141      1.56633168524330
  H   0.86079956539200     -1.51463395587766      0.27199598138355
  H   0.38750237057940      0.19377789691480      0.40435902600587
  H   1.30672526373255     -0.57520251016033      1.71125163753497
  H   3.27259731597307     -2.10512743338549     -0.08572305061950
  H   3.75054729932790     -1.18338896870160      1.36596788781794
  H   4.51747629351976     -0.83452526081981     -0.17676218784833
  H   2.05002726407780     -0.95482763605012     -1.83529896890465
  H   3.10288605749400      0.28921015705023     -1.93800350007278
  H   1.20239274987711      1.85023028293704     -1.63284585781526
  H   0.40619110458490      3.96143716911976     -2.30579884081953
  H   2.83570621393655      6.77874985370006      1.15425308265196
