33
Coordinates from ORCA-job 23948opt
  C   2.59939854971405     -1.14530767336649     -1.69271540801278
  C   3.54262853021856     -0.62603719718371     -0.61401406352572
  C   4.58584964807969     -1.65858277534567     -0.20875374844993
  C   5.53439538770093     -1.15004690300955      0.87398760141589
  N   6.49997280303818     -2.14516056414726      1.27334795818777
  C   7.55982375843478     -2.42579325498537      0.49373227591426
  O   7.84282051751616     -1.78819810066538     -0.51685441000134
  C   8.37584536760682     -3.63197319976224      0.93215281510045
  C   8.69250574924321     -3.73431234467001      2.44313847311564
  N   8.25761765641275     -4.96792810002590      3.05569928457973
  N   9.15417022624184     -6.00913493135847      2.90221440431358
  C   8.70443709293279     -7.13713466908281      3.41611011996460
  Cl  9.81718415952884     -8.48801749570037      3.34801702649631
  C   7.45419426381848     -7.30969871843502      3.96854355899031
  N   6.53397959483446     -6.31882488221848      3.96125469319287
  C   6.92790184195022     -5.13376222933104      3.44046050403342
  N   6.13291356511602     -4.10423734679913      3.29258840133809
  H   1.85418336339448     -0.39974814867459     -1.97552082025803
  H   2.07056057574078     -2.03554207938067     -1.34592084834745
  H   3.15730102277635     -1.42295501964681     -2.58909708150433
  H   2.96396192471515     -0.32844519556874      0.26670552353397
  H   4.04778708530901      0.27698307483901     -0.97032906104411
  H   5.18661258571743     -1.94522588176549     -1.07605805838999
  H   4.08995269082343     -2.56384427956027      0.15514334044205
  H   4.96536282614421     -0.85470324851917      1.75907652121255
  H   6.06556668121494     -0.26993543063811      0.50339338808718
  H   6.28142685569818     -2.80521981361838      2.04830721750091
  H   9.28577573888073     -3.62925001158050      0.33552785741171
  H   7.80485508799447     -4.51976566111795      0.64664787317111
  H   8.22852369091319     -2.91438099428140      2.98784504509872
  H   9.76994412984308     -3.68949735740700      2.59142057833660
  H   7.17073092808459     -8.26519945505668      4.39146402264187
  H   5.22881610036179     -4.38112011193613      3.66148501545402
