30
Coordinates from ORCA-job 23951optt
  C   1.17314736752761     -0.06513632066898     -0.19398034861089
  C   2.70341742248037     -0.11160378768919     -0.14752090749351
  C   3.25632672653160      0.01113375647981      1.24733496238067
  C   3.73159034221228      1.29078413080215      1.71692508387013
  C   3.16278861171717      2.68613256489585      1.43962017433250
  C   2.97404902998061      3.30352957303535      2.86510336618241
  C   4.09089570212787      2.64239186668961      3.70764925047856
  C   5.39081985540743      3.43499713041601      3.63929716208280
  O   3.78754787306692      2.35981639055113      5.08395420534190
  C   3.97888349892742      0.95054574709005      5.33215683799641
  C   4.02658924626373      0.30019873719800      3.97241515759307
  C   3.67740277270642     -0.99828684282330      3.50774407560410
  C   3.30101126930296     -1.04511444593303      2.13470732674951
  Cl  2.81315409912466     -2.65133933079670      1.56042511913350
  C   4.12252463546734      1.30303513545874      3.07187550701694
  H   0.80243238385911     -0.12489644647393     -1.22190292089999
  H   0.80293677126316      0.86128953678388      0.24974341119824
  H   0.75348716436926     -0.89702316915037      0.37285801950632
  H   3.10721379487528      0.71222209282952     -0.74408114121213
  H   3.04228568653441     -1.04005317900217     -0.61445640378596
  H   2.21179604124430      2.65811157807743      0.89654097627856
  H   3.83292794737676      3.32286781342227      0.84803680154790
  H   2.01671591601353      2.97758069008162      3.27679718100980
  H   3.00906462051196      4.39740272744477      2.87217786233435
  H   5.27546255488429      4.39972008657740      4.14022453143438
  H   5.66955550790821      3.60810287534351      2.59722647412855
  H   6.19268797730628      2.87615197124553      4.12466340744665
  H   3.13095525649251      0.58679390112969      5.92227613812153
  H   4.88916581747811      0.81891402576805      5.93375107215647
  H   3.56016410703833     -1.86526880878273      4.13943761807719
