32
Coordinates from ORCA-job 23953optt
  C   0.92332682293106     -0.22529140919985      0.19522752366951
  C   2.38737736199223      0.05453135280692     -0.17114657825901
  N   2.53556910305629      0.51990560497692     -1.55808156121867
  C   2.97722726405785      1.03751801017947      0.81725114166809
  C   2.94399812150673      2.43659689181773      0.54628948225400
  C   3.45481438478389      3.34318312007629      1.51944698830375
  C   3.87588155731331      2.89421272883185      2.74369377920919
  C   3.86741598745104      1.51697197385386      3.07193953994895
  C   3.43639507830432      0.62857661272124      2.04283198264667
  Cl  3.42703499786470     -1.08176475660528      2.47497994513854
  N   4.33197315159811      3.83337438524559      3.72175956147613
  C   3.53138430184908      4.85913098025647      4.12846847246153
  N   3.81432048627360      5.83252505857340      4.91346754199398
  C   5.63095193999173      3.69981158497154      4.30406342462197
  C   6.72773200363670      3.14423119577565      3.46855513065965
  C   6.73257210325938      4.60444919966908      3.81147616095815
  H   0.47623040422906     -0.93586453980306     -0.50727306614643
  H   0.35817727377392      0.70935013943598      0.15966005150688
  H   0.84812776863291     -0.63683812822789      1.20262834946223
  H   2.94407232955826     -0.88097517103924     -0.10141689466704
  H   2.04566260367985      1.40281036562477     -1.66421852610873
  H   2.06242771025813     -0.13653196178279     -2.17035336314241
  H   2.73644934869609      2.80124986851312     -0.44822748542499
  H   3.51117131991655      4.40495538880746      1.30555296721149
  H   4.18935260906759      1.15376792877362      4.03540389783673
  H   2.53280755333636      4.79426812729603      3.70110214679420
  H   4.78654576830605      5.77910177530152      5.21373066791086
  H   5.63614331635019      3.46107136816484      5.36411411327964
  H   6.45343603232467      2.86374075246839      2.46043472071765
  H   7.44229831083097      2.49573503514432      3.95480636029658
  H   6.45079043533954      5.29611365839983      3.02852480425960
  H   7.45433254982973      4.97508285897216      4.52730872068124
