31
Coordinates from ORCA-job 23956optt
  C   1.01913843938389      0.54515092641119     -0.56255106315419
  C   2.47809420261503      0.66284638724449     -0.14820511630022
  C   2.66936365250588      0.75307890173506      1.37679742940639
  C   4.08037109044377      0.22287168378046      1.59553078778559
  O   5.04175530601390      1.17469066721281      1.12272900505970
  C   4.11847952329936     -1.00132767129686      0.67862457654765
  C   3.35385959688454     -0.53783848383288     -0.58928772856269
  C   5.43466142575531     -1.71826569271413      0.50649302161511
  C   6.41874960814324     -1.29290555409168     -0.37823734888121
  O   6.33750106589605     -0.08245761908376     -1.01075086019673
  N   7.51294407459670     -1.98177173071419     -0.70933780613304
  C   7.65616647137996     -3.14615373134132     -0.08783262589784
  Cl  9.08272290217635     -4.07253086281171     -0.57526155347587
  C   6.85119117261887     -3.66307393226772      0.88060868422458
  C   5.68854725085931     -2.92487649242448      1.24855560935944
  C   4.89558068589443     -3.41032069644766      2.33046823799387
  O   5.12238139837976     -4.46406066552167      2.96961662223863
  H   0.43061749752547      1.39341316632379     -0.20342711248587
  H   0.58161370759241     -0.36824362108209     -0.15087400777417
  H   0.92040720412047      0.50097270719603     -1.64896672492467
  H   2.89222051978062      1.57312412788859     -0.58828975186710
  H   1.95976130356444      0.09491567480944      1.88847723977232
  H   2.52577113193296      1.76497997713107      1.76519265200446
  H   4.30743863957320     -0.04450013950409      2.63071038270049
  H   5.12699110885147      1.89135570680451      1.75546014710409
  H   3.45124170614550     -1.71268537945181      1.16721867000428
  H   2.73735517811013     -1.35836726569657     -0.96163611880646
  H   4.03277492332421     -0.25882225712361     -1.39175330472468
  H   5.87759869877044      0.52710757068703     -0.41626671667881
  H   7.06624471704367     -4.59731056629324      1.37602354120733
  H   4.03745579681855     -2.78899513552497      2.64117123283958
