25
Coordinates from ORCA-job 23967optt
  C   0.92336675280184     -0.14948250401018     -0.07508985026344
  C   2.41768599542161     -0.11855245212651     -0.05475161596910
  C   3.29669242511003     -1.17800666973148      0.00412486225430
  N   3.09273152599696     -2.56429388365522      0.06372929876139
  C   4.26137814148473     -3.29085476526902      0.02769722299935
  Cl  3.98777350801462     -5.02127762663546     -0.02909303074071
  N   5.45967240533359     -2.86222309252456      0.07417160265847
  N   5.73932344671692     -1.51937489059154      0.09093757974484
  C   4.64720091866228     -0.71382123904117      0.04466652759131
  C   4.60278281908151      0.70202039496590     -0.00638877934428
  C   5.77424621049610      1.62752517239444     -0.03252411888368
  C   3.25166373275201      1.04614061003755     -0.06965214223995
  N   2.74740130988386      2.36756925984827     -0.14448986826862
  C   2.93341899924823      3.33110430386928      0.80623546691870
  N   3.59139400470203      3.27032687304140      1.89378138373547
  H   0.54779942133208     -1.09849211738418      0.31686160230313
  H   0.49747086519980     -0.02548958091477     -1.07865921185131
  H   0.50584119393680      0.64523829531569      0.54983440205723
  H   2.27094359922818     -2.97936215564917     -0.34731684846575
  H   6.61601706665320      1.15435714117089     -0.54072048323184
  H   6.11706345338042      1.90809384483795      0.96933663288544
  H   5.52178134470029      2.55547684958071     -0.55206436097703
  H   2.11162568734611      2.59372146268014     -0.89124398471311
  H   2.43632680408503      4.26867903932120      0.54811253606946
  H   3.99439836843162      2.33697773046982      1.99850517696972
