30
Coordinates from ORCA-job 23965optt
  C   1.50189338548614      0.68828659208925     -0.94704468842808
  C   2.53413086289870      0.16027501303223      0.03773968879242
  C   3.06841880752769      1.23847941332645      1.00599314647780
  N   3.81709968244613      2.20278156961568      0.17705571073554
  C   4.08742501662444      0.58508668635919      1.98012600973432
  C   3.78777385609104     -0.71087341961530      2.70882155339166
  O   4.67229843685791     -1.54973907450320      2.83783358639988
  N   2.57392583372243     -0.90580215191773      3.26579501683284
  C   1.32935909277469     -0.15488314096600      3.08921961465203
  C   1.43913129108732      1.33161911600902      2.95505177262254
  C   1.98485195472501      1.95676658925100      1.80422161723338
  C   1.49901163090310      3.27155556514704      1.47173331262516
  N   1.58331138403716      3.95805856952608      0.39065961729455
  O   0.75918102743794      3.93267391970842      2.43790647791611
  N   0.59146739127094      3.45568723599168      3.74314157809206
  C   0.82411955317465      2.18812872053775      3.87588741446087
  Cl  0.32675003766545      1.59349579167146      5.46325457095233
  H   1.12376864337065     -0.11349968008743     -1.58427026259266
  H   1.93893931435752      1.45717142473702     -1.58367228285039
  H   0.66001819063036      1.13584493235221     -0.41548385477980
  H   3.39350617248236     -0.25330779162363     -0.50437481079203
  H   2.11439342515197     -0.66748361567135      0.61264004257852
  H   4.71000536372131      1.79958028469714     -0.08172270081085
  H   3.99495270852496      3.05372214606066      0.70000701220677
  H   4.34448191044984      1.32904340702058      2.73947408706176
  H   4.99704871550221      0.35338547127078      1.42361335508249
  H   2.49969637860544     -1.80292690929438      3.72243306174341
  H   0.71832048423748     -0.38589544689167      3.95788515133064
  H   0.80159254221961     -0.55238592663431      2.21253042327769
  H   2.08812690601547      3.42315470880133     -0.30545522124101
