27
Coordinates from ORCA-job 23973optt
  C   2.17091035989740     -0.25606741105003      1.51549430956749
  C   3.41253206828596     -0.03306166346171      0.67276927811013
  C   3.22502367727982      1.00012601886491     -0.49139562530665
  C   4.45307892176874      0.70402218952570     -1.39930067351402
  N   4.44670160871741     -0.79880455962712     -1.44421409185213
  C   5.29215439267276     -1.23244467453435     -0.32274423278131
  C   3.82929797219009     -1.25117037146813     -0.17404321332591
  C   5.74706928865404      0.00240199309749      0.38712518950554
  C   5.69019528731723      1.11085808076030     -0.56912910171874
  C   5.88485409789680      2.36732824556364     -0.03181179058374
  C   5.99010203676879      3.62217607844121     -0.85285269468139
  O   5.30402171332179      4.71401893420642     -0.26690064651450
  N   5.78131348679781      2.57572222260519      1.31975644379108
  C   4.96877020210713      1.66921816807409      1.87797122525634
  Cl  3.89535594084591      2.31632961292527      3.14021950770684
  C   4.73423175058956      0.41073145774115      1.36193183368003
  H   1.33352810577582     -0.57654851329258      0.88868618440228
  H   1.88494964662967      0.65874961461646      2.03326227496593
  H   2.35531046063483     -1.02314276563757      2.27024069758420
  H   3.19298786707589      2.03490018668208     -0.14154342718027
  H   2.29837413491989      0.77251514959599     -1.03483010915767
  H   4.35228429053462      1.10731615144605     -2.40634790862408
  H   5.91443027381716     -2.10657338693745     -0.47132817738566
  H   3.19855923873529     -2.13214768616696     -0.22075602530141
  H   5.57658988446262      3.42707477419333     -1.84758484637726
  H   7.04669493046970      3.89068860643612     -0.98783906243058
  H   5.24267836183322      4.47378354740047      0.67216468216546
