27
Coordinates from ORCA-job 2397optt
  Br  0.84768158025315     -0.12747561980176      0.49671152561992
  C   2.73250882829433     -0.20127213774508      0.28030911124181
  C   3.43170370219682     -1.35730397074704      0.35108701840686
  C   2.80234854733116     -2.71188294265089      0.58106523907092
  C   3.17291890254451     -3.76966199110461     -0.47721642759819
  C   4.40968492119168     -4.56914276686021     -0.04843338283266
  C   5.30990399163927     -3.69647304681654      0.81654652929579
  C   5.69003891968424     -2.39168387992350      0.09457045254228
  N   4.79031052808442     -1.28139053676635      0.30378604550090
  N   5.49575259653447     -0.06271648056346      0.09546119429363
  N   4.77980792434031      1.06037315114345      0.05412776250471
  C   3.43587706266108      1.10502457948455      0.13235880330591
  O   2.78873387005916      2.15618214600095      0.09538467577784
  N   4.65288058892566     -3.46543422051982      2.11006361960021
  C   3.21595648372785     -3.20937660549456      1.98405375077141
  C   2.45007459837140     -4.43253171833308      2.31705171570393
  N   1.84101921778286     -5.37395191649502      2.55816562954043
  H   1.72604034297832     -2.56730109049253      0.57963950870938
  H   3.35037381745300     -3.26282736020308     -1.42688911323132
  H   2.32677131304046     -4.44185144521725     -0.62544979627537
  H   4.96809724452838     -4.91473992039341     -0.91936234543766
  H   4.11846454239777     -5.45206345518239      0.52486064632059
  H   6.23796175199569     -4.23605185885133      1.01799727574089
  H   5.82826306881072     -2.59497535302597     -0.97794906498542
  H   6.64970854340717     -2.02747056004679      0.46493572474396
  H   5.07716591786733     -2.66118612446916      2.55563779541573
  H   2.92395119389871     -2.45681487492508      2.71848610625351
