29
Coordinates from ORCA-job 2399optt
  Br  1.54466929648466      0.86144286977186      1.02622942686101
  C   3.24715334837535      0.26102029959199      0.45883278103012
  C   3.62842431966205     -1.02490965225306      0.24453309401105
  C   2.97376141464414     -2.38495077757302      0.45931519346354
  C   1.46815645120878     -2.54616011639370      0.31679764286028
  C   1.01419034955478     -2.36434353337091     -1.12375692051182
  C   1.77892559888784     -3.35007642314750     -2.00011425448186
  C   3.27530280407716     -3.13050896806280     -1.84580778337233
  N   3.72800596804816     -3.26935141370187     -0.45592324067783
  C   5.11035363716270     -2.75068721867992     -0.36664656316393
  C   4.93651041170060     -1.26145105850778     -0.18983129945754
  C   5.87247108373505     -0.21172477882407     -0.35634532475988
  C   7.22669337382227     -0.41354980328288     -0.74675671880384
  O   7.74821370779028     -1.50904015481797     -0.99012028634084
  C   5.43531995897678      1.14038171555029     -0.11442067777558
  O   6.06784572305250      2.16493993405916     -0.19855162233008
  O   4.08637804075666      1.31399376310015      0.25960918382239
  H   3.24603734761756     -2.70178588545766      1.47435511800704
  H   1.21871917924885     -3.56138815668901      0.64180793928329
  H   0.96093883640487     -1.85475145951861      0.98711767662935
  H   1.22844018695867     -1.33934838026875     -1.44422479652746
  H   -0.06456358676559     -2.51457044164188     -1.20852980588956
  H   1.50790129454774     -3.23527891698209     -3.05244608238603
  H   1.52650564119141     -4.37315977566010     -1.70281335694592
  H   3.52286542902871     -2.13175208326932     -2.23926645152688
  H   3.83129269146112     -3.85964033745331     -2.43906031632647
  H   5.69425143662261     -3.01803185783441     -1.24567372272678
  H   5.61141794554094     -3.19850458724505      0.50038764749876
  H   7.82481811020328      0.50918719856225     -0.82369647946218
