26
Coordinates from ORCA-job 23990optt
  Cl  1.02363695899757      0.25876294541321      0.58980815810477
  C   2.75123234230626      0.17508312674717      0.32443557958616
  C   3.30619427602619     -1.08314104865079      0.09457878960480
  N   2.62139009340826     -2.31391583274619      0.02720024489693
  C   1.90119944906484     -2.56626603149580     -1.19484119280173
  C   2.68702014140408     -3.05457234130576     -2.36715955434404
  C   1.76934519692070     -3.99203192306548     -1.63175083375943
  N   4.68466652140895     -1.13403061335925     -0.06455188946060
  C   5.49779875197646     -2.18796413824043     -0.26330040915064
  C   6.79466601824223     -1.67681273614794     -0.37173759617965
  C   7.99290837660384     -2.41444505462213     -0.59123619275231
  O   8.07313840189611     -3.64328011155908     -0.72891670270187
  N   6.76454152956773     -0.30059221571424     -0.23120275101340
  C   5.50456031963564      0.02287993735821     -0.04514174075719
  C   4.88659522204124      1.27222990202981      0.17423752295876
  C   3.50551196932219      1.33621274611510      0.37319696009406
  H   2.01878786100669     -2.45053506317558      0.83022992294249
  H   1.07029528227345     -1.90096807102616     -1.41460347558383
  H   3.75067228163883     -3.17795171809736     -2.22563616346643
  H   2.38782951417218     -2.71262306630602     -3.34755483335632
  H   2.23270710432478     -4.73084617617113     -0.99304958588720
  H   0.85147049638057     -4.30047164288780     -2.11284117958870
  H   5.13200424846055     -3.19721274531666     -0.29920921624322
  H   8.90103236697354     -1.78490780996333     -0.63000010731961
  H   5.50967553960025      2.15305897924058      0.19777429898557
  H   3.01211973634674      2.27934070294710      0.56227194719265
