23
Coordinates from ORCA-job 23999optt
  C   1.12073198973275      0.38870921546269     -1.13055624233202
  C   2.48051850095607     -0.00890903619317     -1.66010916780722
  N   2.76823394693262     -0.19812115155128     -2.88956634162210
  N   3.42576732301738     -0.10464059027430     -0.67494994478595
  C   4.77314309554381     -0.48044299113245     -0.84725997981844
  C   5.30105457524066     -1.57260448447895     -0.09406448915618
  Cl  4.25892920086751     -2.52129923545802      0.92402386767279
  C   6.64013820828924     -1.86846044468383     -0.17738664304122
  C   7.53758409303971     -1.13978706428644     -0.98780905895339
  N   8.74941004609784     -1.68839057511671     -0.83377566630954
  N   8.73083119927977     -2.67408139975047     -0.02432092560351
  O   7.32543761983618     -2.82736070561208      0.43494523604074
  C   7.04525068161707     -0.03287961481925     -1.73946399753803
  C   5.65872063683978      0.24865799632390     -1.63270868942361
  S   5.31741962508964      1.65566359611088     -2.58415782038603
  C   7.00731302677327      1.75727577145497     -3.00103987893652
  N   7.76329169777860      0.82539282578469     -2.51368274558122
  H   0.36219958126160      0.24950734718673     -1.89798109379095
  H   1.12785691314338      1.43658088376074     -0.82613314917744
  H   0.85049380384766     -0.21221459904830     -0.25933111394407
  H   1.94641801206087     -0.04591735755562     -3.46524266832969
  H   3.07264821239972     -0.18510446939170      0.26594937926243
  H   7.36260801035481      2.54242608326796     -3.65237886643881
