29
Coordinates from ORCA-job 2400optt
  Br  0.69703467415768      0.14812998106941     -0.79323943481767
  C   2.58737940037157      0.00423078179630     -0.58989228925377
  C   3.16420035163252     -1.17614958129649     -0.31403295389760
  C   2.43799343258471     -2.49023526856995     -0.11549157606303
  C   2.15100094239599     -2.73573257222683      1.39376873684471
  C   2.95436348684768     -3.92100215967417      1.92915950035620
  C   4.41277791183028     -3.80133561670264      1.49555203388951
  C   4.52518289136594     -3.66046289590004     -0.04015231798288
  N   3.18911651276231     -3.64145039143927     -0.63250032170589
  C   5.28742775498777     -2.37766798272494     -0.41529887255005
  C   5.55982200895095     -2.35502522024311     -1.86524972358182
  C   5.68424971242713     -2.34153031361419     -3.05869357607704
  N   4.52625661876333     -1.21529097314270      0.01207209753201
  N   5.33724246792480     -0.06435427759908     -0.00861079027611
  C   4.70174293932438      1.07573402049807     -0.29147315844304
  C   3.34675836417094      1.27704030226594     -0.62353890590530
  O   2.81680832654600      2.38064827320922     -0.91757366826331
  H   1.50073367576486     -2.44021913359725     -0.66193634298506
  H   1.08308581511695     -2.90452840323476      1.53973106447717
  H   2.41352582878645     -1.83573253185698      1.95312207407162
  H   2.53732186967737     -4.85233556415491      1.54290441918546
  H   2.88752932690840     -3.95706521541048      3.01920423136148
  H   4.98502428555320     -4.66844777571456      1.83138670209107
  H   4.84854915954832     -2.91689140282992      1.96661955063119
  H   5.06445757252541     -4.51010112782697     -0.46165691865835
  H   3.28210023221602     -3.55137117787721     -1.63988237438792
  H   6.23646713627469     -2.32916461788185      0.12418589300355
  H   5.80708958807087     -2.29440734458932     -4.11335733081155
  H   5.33575771251330      1.95671818926877     -0.28112574778358
