28
Coordinates from ORCA-job 24015optt
  C   3.04277352057941     -1.73314104204342      0.49068112066020
  C   2.62250334749349     -0.30526620526969      0.16114876244575
  C   2.65990781513735      0.62422693900141      1.36772760740923
  N   1.75297764540985      0.16233293825525      2.45723795434497
  C   0.33350563885126      0.32502323717174      2.16443075207163
  C   1.04362436404617      1.34811568800111      2.98262705146209
  C   1.52739589364731      2.52821819568919      2.23722814536202
  C   2.28642751163667      2.05874185257562      1.11051502849095
  C   2.93030102109630      3.04903179512564      0.33338183043386
  C   2.70212026341259      4.35460727708742      0.66931560786741
  Cl  3.41282090769663      5.61674599915229     -0.35353787995286
  N   1.93671951036101      4.82898884733854      1.68091223714666
  C   1.38606836139646      3.86787891061696      2.44952288437289
  O   0.60746839462252      4.28089529926051      3.50457397099301
  C   0.69912240811389      5.64381852816720      3.84914239349986
  H   3.02130279880270     -2.37250979100629     -0.39463590083503
  H   2.37780491790368     -2.15813681693997      1.24367193947794
  H   4.05582826331549     -1.75388559161773      0.89877672780109
  H   1.61292755824071     -0.29232795129467     -0.25810557931845
  H   3.27972079317073      0.11779766355608     -0.60460100687077
  H   3.67282852177344      0.54914203497177      1.80389139680373
  H   -0.31089213797860     -0.40857235142130      2.63666896509785
  H   0.04810199675494      0.63657246536050      1.16507228094652
  H   0.88256908011035      1.39502509300175      4.05229465628094
  H   3.57419865485892      2.81368907610769     -0.50453239957141
  H   0.03115686755478      5.78220386912856      4.69959274421553
  H   0.39725034002725      6.28740982631616      3.02226760326591
  H   1.72046574196464      5.91437421370763      4.12973110609846
