28
Coordinates from ORCA-job 24016optt
  C   1.02017476093682     -0.12746264416182      0.80525425217484
  C   2.27160207143282      0.54031039465043      1.35897908175639
  C   3.52825889194425      0.13598851435175      0.59515269550590
  C   4.77189076547284      0.73989360473034      1.22764150874374
  O   5.01571026402681      0.56887985117848      2.41511352836936
  N   5.55152794188780      1.45313189047519      0.40620430256148
  C   6.77001601191586      2.11054366475260      0.82820096006343
  C   7.33848835763679      2.86596840282999     -0.33879448533185
  N   8.45880238899562      3.58854551697336     -0.22515530045462
  C   8.61505806692511      4.10419904752822     -1.47232799592666
  N   9.62117486214001      4.91666860264356     -1.83204683306069
  S   9.67095115850634      5.47419881167976     -3.38542445562327
  C   8.29090013431593      4.81801283462523     -4.21983718544687
  Cl  8.17579125246532      5.31663486762991     -5.88032195870086
  C   7.38363247524306      3.99987401792323     -3.65013075550770
  C   7.53668196948651      3.63849145207319     -2.28691123505850
  N   6.73156414468770      2.84536279479385     -1.53554476913113
  H   0.12894191190656      0.17183290947061      1.35912917047757
  H   1.10274362094747     -1.21498243643792      0.86495049280872
  H   0.86604485539406      0.13478366656558     -0.24375932947430
  H   2.41425693987224      0.28062979089844      2.40893472451827
  H   2.16291612180522      1.62739904568070      1.31733096623050
  H   3.44615743325283      0.42143967299533     -0.45608285077021
  H   3.64173596919553     -0.95119315724916      0.63534394810285
  H   5.31748915381614      1.59669418888310     -0.56816816008029
  H   7.49000722378628      1.37572906963628      1.19816893691292
  H   6.56340311842591      2.78918130086209      1.65955074830467
  H   6.54507813357802      3.62924432401762     -4.22745000196367
