27
Coordinates from ORCA-job 24013optt
  C   1.12955357672794      0.14899391085737     -0.01147732918194
  C   2.63465552245829      0.04664513812411     -0.12420104105986
  O   3.12178559480358      1.35922432611913     -0.28019411243712
  C   4.44923412478659      1.59785808230182     -0.31406847861060
  C   5.34520899455816      0.56125429307434     -0.32060473584910
  C   6.78230816958321      0.66152734557931     -0.26033387235565
  S   7.53586025195782      2.25541437744097     -0.15878635443491
  C   6.18642524140926      3.29042383722157     -0.56036079882076
  C   4.81524701280449      2.98726817513251     -0.34644861005338
  C   4.00856100901087      4.12186291928273     -0.17914600276062
  Cl  2.25140280180012      4.03633598709580     -0.10952168931787
  N   4.44870827250062      5.35607405915406     -0.09168182496573
  C   5.77603803454084      5.60843878326390     -0.26319747293773
  N   6.35408338501323      6.73262191706211     -0.11272601664176
  O   6.60398326827793      4.58868745043091     -0.69842010927791
  N   7.61636373244049     -0.31044454419703     -0.20964408395085
  C   7.09009068966822     -1.65580996155621     -0.19466594922411
  H   0.69066105946853     -0.84286862819734      0.10545838198197
  H   0.71659708538962      0.61543591102184     -0.90568212890505
  H   0.85769551725504      0.76220252623337      0.84727541553115
  H   2.92030030542359     -0.56683775627817     -0.98594707269781
  H   3.06896799458045     -0.40704968152441      0.77300605112680
  H   4.95940965463530     -0.44432648632471     -0.33740592074820
  H   5.63607380071439      7.39756525710032      0.16123764485581
  H   7.91890941365817     -2.36003449262112     -0.12563030432478
  H   6.52348387838925     -1.89440408942703     -1.10474484454087
  H   6.42339160814389     -1.83605865637019      0.65991125960089
