29
Coordinates from ORCA-job 24024optt
  C   0.84925260656557      0.14528165111045     -0.09679507844321
  C   2.37794967312225      0.06058948136109     -0.09550096296260
  C   2.88554994349408     -1.17904685809929     -0.80319787799086
  C   2.57823107292736     -2.46589183321111     -0.40042550152313
  C   1.99992188406786     -2.78815257057551      0.92092522916637
  N   2.14276319228015     -1.94605746872084      2.08568349614898
  C   1.42306254523193     -3.97395587476539      1.20051772008596
  O   0.94413783502302     -4.26295946076147      2.43292704094515
  S   1.34052330501416     -5.27227049927755      0.05613241497018
  N   2.47186193973712     -4.85991861285815     -1.07695483615019
  C   2.88350823361663     -3.60290178581988     -1.25023352082997
  C   3.70846074170408     -3.33027148686696     -2.38568225806836
  Cl  4.17804112098924     -4.72486351587773     -3.33516082795788
  C   4.10032220785167     -2.07661405575356     -2.77066742651900
  C   4.94698577153452     -1.81747456326646     -3.98069067213965
  C   3.64611694521830     -0.92645032122909     -2.01588365430654
  N   3.89945380875763      0.31947424958297     -2.37621301457455
  H   0.49735564400130      1.02409640186461      0.45074329159255
  H   0.38040615302543     -0.74385600890739      0.33350495109693
  H   0.49215841096113      0.22227396130591     -1.12510205357082
  H   2.76568699546608      0.15106288927808      0.92058570507034
  H   2.77385944126442      0.91319492637243     -0.64218935384347
  H   3.11111641766282     -1.65875682553435      2.18318554718506
  H   1.59981310648417     -1.09521719026878      1.99848503944562
  H   1.17805888952658     -3.47053752503608      2.95409340465743
  H   5.29103056061600     -2.73806829069867     -4.44100080912131
  H   5.82028116363751     -1.21526647795361     -3.71185374511137
  H   4.38686131960870     -1.24708619259094     -4.72945882182719
  H   4.43322907061025      0.33564385719727     -3.23777342542444
