32
Coordinates from ORCA-job 24021opt
  C   1.03210582269744      0.89737202604848      0.17501428927334
  C   2.20466848763384     -0.08059741719714      0.21252995266783
  N   3.27914414673927      0.38805520847565     -0.69442992605012
  C   2.75009525090563     -0.33202486461310      1.61119308443621
  C   3.07731792955531      0.73992570353696      2.44243133959518
  S   3.27388261192135      0.50694175852746      4.16960003466697
  C   3.94773993291149     -1.15037568459295      4.29481431021350
  N   4.59994812978813     -1.46982897699967      5.37148770197980
  C   3.63554199243594     -2.05771349650622      3.24394948784560
  C   4.05091882253967     -3.49050232526542      3.45185525388251
  C   2.98421641488162     -1.64570049147582      2.06808665306811
  Cl  2.48880390072015     -2.99460667404984      1.01675427074558
  C   3.38761807695949      2.11695602201556      1.95212050360897
  O   2.51361554621177      3.07620366867424      2.56128638434818
  C   4.85897561752117      2.49841560357208      2.24663534555720
  C   5.16502800481551      3.85761596321958      1.81418374020432
  C   5.34741969555874      4.98895542109723      1.45321041638223
  H   0.68510642730928      1.01970128434631     -0.85588417643205
  H   1.27966917426045      1.87829772056485      0.57547286746007
  H   0.20839372757721      0.49498005424843      0.76605553299359
  H   1.81092782644523     -1.02992161005308     -0.14616583055445
  H   2.96639197702142      0.31469584553661     -1.65776547375730
  H   4.07472945043100     -0.23462172664028     -0.59542035161807
  H   4.71143137420025     -0.65584905731174      5.96993515713485
  H   4.61334988818428     -3.56205293917443      4.37918998832264
  H   4.67081722425805     -3.85629609880334      2.62842181865038
  H   3.18474197210412     -4.15609245646058      3.51453537805591
  H   3.27290182566143      2.14309118304562      0.86915682338148
  H   2.83689411110431      3.95483335964312      2.32827851935947
  H   5.50553783824531      1.78910574532970      1.72637505081586
  H   5.04168160679596      2.40046891215432      3.31824846696022
  H   5.53038519260503      5.98556833910741      1.13284338680189
