23
Coordinates from ORCA-job 24033optt
  C   4.51671685080702      1.03780925430929      1.20088772081733
  C   3.95826086231680      1.86467250937151      0.03478394517661
  O   2.81503490205663      1.20252094660814     -0.39654119703814
  C   2.13588626198120      1.71021220165863     -1.54527323736084
  N   1.11108630949290      1.03007311530179     -1.92649999249026
  N   2.70684497763334      2.80922966627284     -1.99525903064749
  C   2.33556631790472      3.41179643584374     -3.14799403961990
  C   1.28176261337195      3.04429682033421     -4.04236877678107
  N   1.07405456456351      3.60853519206404     -5.19534103418688
  N   2.02916631694019      4.52867093652078     -5.56811611411908
  N   2.74477503309453      5.26176563024493     -4.64456406372234
  C   2.92540397051620      4.65942717728956     -3.52005788411150
  Cl  3.90491132839649      5.50099826766961     -2.36162271651580
  C   3.66968204886303      3.22870199220235      0.55487204601226
  N   3.49685020302776      4.20241379944686      1.13299822522078
  C   5.02091824760400      1.94431119864635     -1.00400631190013
  N   5.95593241611175      1.89087979100001     -1.66501793481661
  H   3.75684193807320      0.98058140965422      1.97727515983827
  H   5.41800097264441      1.50225202391497      1.59630925907481
  H   4.74484527229641      0.03960890203023      0.83298990996598
  H   0.99410197115123      0.22747457950886     -1.31574750492471
  H   0.58507231905431      2.27395609752918     -3.74484908461782
  H   1.67528430209830      5.13581205257784     -6.28985734325342
