21
Coordinates from ORCA-job 24030optt
  Cl  1.30224095739366      0.75076877937422      0.31072156338100
  C   2.91858151624553      0.05200370952678      0.58158742487463
  C   3.27602344903266     -1.13094313772398     -0.06527329292685
  C   2.49498047627930     -2.36839961637293     -0.38412652219489
  C   3.61678674829980     -3.32693967279276     -0.77235707819115
  C   4.68997596280083     -3.60442853198330      0.20400274556182
  C   5.54351917101653     -4.84754355454988      0.07886409991919
  C   4.93255425969556     -6.00369892155659      0.73624488968473
  N   4.43892386472545     -6.89857667852605      1.25630932190104
  N   4.90335758501532     -2.61322223861675     -0.84537711209916
  C   4.60816004799381     -1.28278988456665     -0.36191929927936
  N   5.58964939945776     -0.39585955539417     -0.19757870449989
  C   5.23217753318928      0.80045875624531      0.30274090313217
  O   5.93650874009483      1.76607397061170      0.46594722994173
  O   3.87635336205823      1.00427793590406      0.72753502136274
  H   1.80654712760683     -2.22606658996024     -1.22220330046346
  H   1.90604687607972     -2.73516448793233      0.46114780765786
  H   3.44208462598656     -4.05106441704096     -1.56006265574151
  H   4.55630041930798     -3.22245643091347      1.21131805654618
  H   6.53083428105611     -4.67831193914963      0.51277185277091
  H   5.68439359666421     -5.07711749458236     -0.97829295133773
