27
Coordinates from ORCA-job 24047optt
  C   3.12606226477254      0.39913706849738      0.40128714370467
  C   2.47428183646084     -0.67491099877698     -0.46665995311421
  N   2.62574220741838     -0.42478056656137     -1.89873452999957
  C   1.68537763034255      0.50865784010379     -2.46502465850222
  C   3.91571133342232     -0.43771298169232     -2.41422150607839
  C   4.82525796181780     -1.47098089258419     -2.10977717795540
  C   4.51019292568908     -2.86502393204986     -1.82183311600987
  O   3.43681616212912     -3.47432058571825     -1.77519413793748
  N   5.74200821919408     -3.45668001692439     -1.58688753375013
  C   6.79311771584512     -2.54360800330254     -1.67823954458446
  C   8.12369826931852     -2.86930294334083     -1.40628921696198
  N   9.22814667227479     -3.13870597310773     -1.17949660031535
  C   6.22918855135151     -1.31047537172951     -1.98827326136883
  C   6.88992451666594     -0.03072302096394     -1.99260847344603
  C   6.24453501708558      1.07488642399056     -2.37455681608785
  Cl  7.02175186656291      2.63902036960039     -2.28674168685706
  S   4.60926398986703      1.10945179008562     -3.01797425091307
  H   2.98575623286193      0.17780435579419      1.46132276410376
  H   2.70557332552223      1.38675290484251      0.19975469622927
  H   4.19830388229536      0.44050574238097      0.19827509496472
  H   1.40272998020711     -0.73923849882320     -0.26065664276499
  H   2.89601750919621     -1.65633270947109     -0.25226859834748
  H   0.66960014992030      0.19921175242809     -2.20986800221505
  H   1.78202491657329      0.50411390775393     -3.55158871067012
  H   1.82957291898343      1.54240469535667     -2.11694799004280
  H   5.83600339955052     -4.43982774498591     -1.40331600422703
  H   7.90834054467140      0.04167738919805     -1.62948128685297
