24
Coordinates from ORCA-job 24051optt
  C   0.64123704040461      0.07687029263206     -0.14588239056609
  C   2.12021721191738     -0.02920677302144     -0.09477865171738
  C   3.10865108868280      0.92732336000570     -0.05972572763679
  N   2.88401627534552      2.33215576523822     -0.06586335438291
  N   4.36137848347593      0.36122566395978     -0.01688879266947
  C   4.13662667851895     -0.93337730889914     -0.02677645341422
  C   4.94302648599633     -2.20353620111056     -0.00030773672831
  C   3.83522543640436     -3.23249745622450     -0.04500369446998
  C   2.56536622593501     -2.59786049572926     -0.08820434107164
  C   1.37786588878636     -3.31177452401891     -0.12368398093428
  C   1.52021673380737     -4.67637612132191     -0.11373008815277
  Cl  0.16595210612688     -5.75247487091118     -0.17134638364653
  O   2.70419584522275     -5.33749740977670     -0.07883314626634
  C   3.95890514293687     -4.61653610417953     -0.03905100182181
  O   4.94597110895078     -5.32785240080443     -0.00672602244185
  N   2.80493960925744     -1.21705987549489     -0.07445466232882
  H   0.36728287496262      1.13090079204183     -0.14182213253968
  H   0.17314346386863     -0.41163242570277      0.71285251739140
  H   0.23598528430891     -0.38739751738971     -1.04922955543726
  H   3.32720839642658      2.75122312570048      0.74423710647342
  H   3.32949672448727      2.74655178116517     -0.87725248530636
  H   5.56083049549436     -2.26697399586962      0.90185126056438
  H   5.62750283187283     -2.26128015319803     -0.85342013173594
  H   0.39775856680940     -2.86291714709063     -0.15796015116079
