28
Coordinates from ORCA-job 24050optt
  C   1.10226579721549      0.05439056293202     -0.20534352105265
  C   2.53167093609020     -0.00185149008344      0.31599436628737
  N   3.45298087138818      0.20075584354459     -0.82523405325697
  C   2.82867698294634     -1.34135008905315      1.00246072725852
  O   2.04823571400033     -1.62980325539568      2.15013665426890
  C   3.46974257938383     -1.10634607619729      2.30232755602109
  C   4.32473528983148     -2.14398761080646      2.98289683847578
  O   3.91548357114988     -3.45658326921309      2.65511142420661
  C   3.54791510491302      0.33397011116083      2.50178032833068
  C   3.90614780577067      1.12852869266287      3.60155522252385
  N   4.52984355533450      0.56549183229437      4.73121558128831
  N   3.69244486899982      2.42908964339511      3.66921604300906
  C   3.02916421611631      3.00310098206565      2.62065006823761
  Cl  2.71473929015102      4.72300389659961      2.79283200327061
  C   2.58623753470409      2.33812957221498      1.49167117099028
  C   2.83858384120375      0.98262145670946      1.41671299900828
  H   0.96313058962556     -0.65428842749499     -1.02864235725623
  H   0.88562109819485      1.05557684684036     -0.57940460114369
  H   0.40666661021846     -0.19156845866646      0.59662679020094
  H   3.49954817138731     -0.63725689573839     -1.40094606675006
  H   4.38533962719378      0.37342197501519     -0.46303766305288
  H   3.05491377240270     -2.19647224797199      0.36554379918118
  H   4.26879314823629     -1.99226370799589      4.06662220969292
  H   5.36436640015045     -2.02809741360619      2.66805167297143
  H   2.95371181090862     -3.39078414541983      2.55646819142662
  H   5.24026329153318     -0.11150025560330      4.49054585512043
  H   4.90798268582808      1.30693813827863      5.30603606830717
  H   2.06979483512175      2.87713378953248      0.70715269243478
