26
Coordinates from ORCA-job 24057optt
  C   1.23970548123341      0.03889207621589      0.13745375573059
  C   2.73036867892087     -0.00415728221658      0.05757655712339
  C   3.48863343732514     -1.14068873268092      0.13367871549809
  O   3.14579581071248     -2.45497161581043      0.05311502217190
  O   4.83917159048628     -0.87249265724192     -0.03466985424101
  C   4.91005600189689      0.49159729642467     -0.13389889361662
  C   3.64755426882023      1.06226881002278     -0.12947613592177
  C   3.79349781002394      2.56060971840941     -0.01596761915163
  C   5.31505568343114      2.72784286483477     -0.07306522801156
  C   6.06414185903950      3.87680424093169     -0.06234145910391
  C   7.46130824644024      3.77072848793688     -0.05424144561271
  Cl  8.44481044851752      5.22011099834252     -0.10075564027648
  C   8.10429451078278      2.51115094103425     -0.07039925652065
  C   7.36373647216202      1.35073742132154     -0.08669537088840
  N   7.96753460553962      0.07417670637865     -0.15088381546985
  C   5.95105022099025      1.43079531758130     -0.08535363896186
  H   0.83157627105276     -0.96516025728378      0.25942725876761
  H   0.81247231973023      0.48041887064264     -0.76633328324686
  H   0.90499514474506      0.64563146084272      0.98311407340368
  H   3.24691342798356     -2.75783584538674     -0.86379087421125
  H   3.39365269683612      2.93925567177437      0.93801239501038
  H   3.28916485003748      3.12405956167430     -0.80723011997995
  H   5.59780100169764      4.85549206978281     -0.04612592288426
  H   9.18727519984420      2.46270496257962     -0.07546211336166
  H   8.86626888768677      0.04382161668670      0.30906739062587
  H   7.36116507406356     -0.64879270279720      0.21524550312894
