27
Coordinates from ORCA-job 24061optt
  C   1.04335312549085      0.33501902667367      0.54212602347199
  C   2.42078449270523     -0.11558000987359      0.07429879714548
  N   2.97335523610583     -1.14396221096565      0.93612556097134
  C   2.66779280830523     -2.44911310052506      0.66873834637217
  C   1.94268445653366     -3.05231411981778     -0.34011042955693
  C   2.07090906420385     -4.43272483880996     -0.05495511520306
  C   1.48136802623624     -5.57812297759467     -0.81168497653287
  N   0.04712029851281     -5.35675582949992     -1.03942234638377
  N   2.79187712714262     -4.66453779419592      1.02158318049810
  N   3.15398886600972     -3.43863198076481      1.47044466061808
  C   3.92651118402864     -3.19130181351946      2.59171343324855
  Cl  3.26662579178848     -4.38667636823841      4.32841823619369
  C   4.21407671505164     -1.88925457655045      2.85082974205191
  C   3.74124574144563     -0.78559759963953      2.05088050354583
  N   3.94026443399709      0.47777664620410      2.24965114694398
  H   0.63564876680507      1.09051675563733     -0.13245423555450
  H   1.12603727923922      0.76303801902804      1.54097965696954
  H   0.35420041199650     -0.51052427221770      0.57512170500400
  H   3.11563568838134      0.72117286861998      0.09313333193532
  H   2.37856142974205     -0.51856524377180     -0.93904075297320
  H   1.38870720787144     -2.59274532328988     -1.13910324167362
  H   1.70802691751278     -6.48603964554804     -0.24461803138031
  H   1.96023210913486     -5.66642088123568     -1.79115036868775
  H   -0.40085801951211     -5.15599624017443     -0.15190776376268
  H   -0.38428784336919     -6.19549336125950     -1.40918112722488
  H   4.77028808966654     -1.64140470415914      3.74495718753922
  H   4.51685059497382      0.58723957548846      3.07762687642431
