22
Coordinates from ORCA-job 24063optt
  C   3.73661217105478      0.20359793429094      0.87612385668830
  C   2.54484279108423      0.12899979062151     -0.07205777184720
  N   2.69876157227640     -0.92153301042753     -1.04812912537499
  N   3.29712470487846     -0.61649797863191     -2.24080923133614
  C   3.57244634102382     -1.79597599372064     -2.79798583266354
  C   4.14533623651964     -2.08973002580233     -4.04873380613431
  C   4.29908505408337     -3.43474108760234     -4.33105642626831
  Cl  5.00933795617191     -3.91018682959418     -5.86038153823162
  C   3.90754530125265     -4.44009570979037     -3.44937075677733
  N   3.35311966686765     -4.17854180174217     -2.26034752386900
  C   3.19678382444884     -2.89568077264523     -1.95058641789358
  C   2.64828243151182     -2.28206838780832     -0.78790377977001
  C   2.14286266082790     -2.89438272899395      0.37693017169139
  O   1.66150405416414     -2.32320180030697      1.37388492477178
  H   3.62200382078524      1.03792822812002      1.57159345735545
  H   4.65986356880173      0.33781541017607      0.31049960908359
  H   3.79557197349124     -0.72045053551333      1.45199879581446
  H   2.43730049709918      1.05367645767989     -0.63937170792369
  H   1.63837647257898     -0.06740469031695      0.49762407713284
  H   4.44815343966422     -1.32019001405686     -4.74461771115863
  H   4.04757246760323     -5.47884792371468     -3.72309132363796
  H   2.21051299381052     -3.99448853022064      0.34278806034851
