22
Coordinates from ORCA-job 24069optt
  Cl  1.85408837243997      1.36907931576541     -1.15723354427749
  C   3.43469907152278      0.74096687304266     -0.66955194902426
  N   3.86471183636599     -0.29424642444776     -1.23809258534230
  C   5.14453131229763     -0.87464097198633     -0.99762645180897
  O   5.38601897070812     -1.89572690422599     -1.60892300198288
  C   6.08498518864597     -0.21552994266289     -0.06867470452854
  C   5.62836469663168      0.81906511434137      0.74076892560087
  S   4.16472527670860      1.69718257356200      0.53666762921294
  C   7.46189952045972     -0.67106246852547     -0.01493725324150
  C   7.75461390247746     -2.02026209840412     -0.19726884247478
  N   8.95772470718799     -2.67063126145482     -0.16199232261469
  C   10.22761143145585     -2.21891240950551     -0.22747340303449
  C   10.65000949066086     -0.92717000703901     -0.40435971774883
  C   9.87952937617726      0.27840802043622     -0.39668119199985
  O   10.30822614736066      1.33806884638677     -0.83781596995079
  C   8.49549762535293      0.33205788976455      0.29479549124468
  O   8.30292056984287      1.29813414204063      1.00906902942558
  H   6.25011321942270      1.23865503800887      1.51257387328350
  H   6.93249913385509     -2.70387445567304     -0.31824903401055
  H   8.86901785480696     -3.67211975676009     -0.13900478529195
  H   10.96071038749150     -3.01474324522116     -0.20389461636541
  H   11.70450190812724     -0.78369786744228     -0.60409557507028
