29
Coordinates from ORCA-job 24062optt
  C   1.23514967948107      0.33850130444140      0.19797311640765
  C   2.64507665519248      0.04967976093100     -0.31882400906937
  C   3.12215642010420      1.14702149313040     -1.27211774008631
  C   4.37079651776354      1.10631490497520     -2.17377977202498
  C   5.50203215251253      0.07852099223155     -2.30950645208314
  C   5.21876701499906     -0.81503696585170     -3.56332092735102
  C   3.98489604218737     -1.65902662848651     -3.24506530106594
  C   3.07697954558615     -0.86815492607135     -2.46210193555076
  C   3.04680135173873      0.61310188781433     -2.66510101037802
  C   2.76904351424196     -1.19733288679092     -1.17090528703978
  C   2.94043896876484     -2.52326845164499     -0.66836855879505
  C   2.58117598437819     -2.86525477287471      0.63964346050443
  C   2.24990399520809     -3.11897033416994      1.78198308587962
  C   3.61502565349163     -3.40570089755819     -1.57981455575792
  Cl  3.84114875182040     -5.07433120342522     -1.08401365309559
  C   4.17775403853721     -2.99029522829825     -2.75258297935354
  H   1.21279536338322      1.23651957573645      0.82232404499216
  H   0.87756730276564     -0.50714292079602      0.78720813837007
  H   0.55548618909395      0.48555139478883     -0.64491350328514
  H   3.31131967238903     -0.07363338789258      0.54185575105569
  H   2.77614282670379      2.15504611134173     -1.06577844094865
  H   4.64818967868226      2.10890856088241     -2.48893862466625
  H   5.57269299720943     -0.57142505572132     -1.43381362388365
  H   6.45695193412047      0.60311044716971     -2.40717600491394
  H   6.07318862179612     -1.46411295222823     -3.77368118203470
  H   5.08579985255625     -0.15022498936624     -4.42433653252280
  H   2.51775554375492      1.07820960100649     -3.48873064216996
  H   1.96673170272392     -3.35876417728857      2.77635613501821
  H   4.83523202881351     -3.67581025598475     -3.27847299615127
