32
Coordinates from ORCA-job 24066opt
  C   2.95644624206371      0.04040198320544     -3.81655855492430
  C   2.48482574268552      0.69192901405223     -2.52125886957095
  C   0.96320984287306      0.68820772991440     -2.42661468485056
  C   3.07739766882642     -0.01375384770078     -1.29340269067711
  C   4.56928052557247     -0.08559636422646     -1.32290735727852
  N   5.22415316634910     -1.18220342209810     -1.37701253832859
  C   6.64023102772824     -0.81733828405965     -1.50322329458627
  C   6.71204552412621      0.68360053266136     -1.18494081591309
  N   5.32004444409063      1.07560850055925     -1.41929661978922
  C   4.89404780317996      2.34269045427243     -0.94761972476681
  C   4.94075067990027      3.41619590760985     -1.76431531319732
  Cl  5.32035443341501      3.25435737514559     -3.46336821100980
  S   4.40680235380955      4.98406837298849     -1.20557544321432
  N   3.20387839537158      4.58748773686751     -0.07601332764330
  C   3.39792240828200      3.48672445726849      0.61013447241305
  C   4.36635693493410      2.44922933892639      0.41572046090040
  N   4.64449952642168      1.46805407841872      1.27023957896051
  H   2.51186036365262      0.53574752078883     -4.68250440295104
  H   2.67243061935814     -1.01614298816865     -3.83900704000198
  H   4.04183952839612      0.10067042860181     -3.90923659189317
  H   2.82583055790113      1.73108274978078     -2.51633800277646
  H   0.58439878889114     -0.33836898861609     -2.42197779773967
  H   0.51468836046937      1.20923736673066     -3.27491261325037
  H   0.62726909861666      1.17805079961597     -1.51060173453964
  H   2.71229094509845     -1.04187402103753     -1.24547462573491
  H   2.77170140519910      0.50592384043214     -0.38237915020005
  H   6.96480829429009     -1.02150147131861     -2.53008680611954
  H   7.25789301049532     -1.41801142227931     -0.83491536096240
  H   7.38705132698493      1.24343850536745     -1.83298176786629
  H   6.96164726784837      0.87002793067326     -0.13588061088134
  H   2.66769363446396      3.31207134324995      1.40390134194206
  H   4.13635007870487      1.63398484237414      2.13840809645104
