30
Coordinates from ORCA-job 24078optt
  C   0.91536221932754     -0.00690190272976     -0.06033609285149
  C   2.43812551247582      0.05262461591785     -0.06881128047823
  C   3.03537888017761      1.20752096975412     -0.89981594107933
  C   2.59075262487868      1.07748488029521     -2.36735297725529
  C   2.54592646894300      2.48452193047067     -0.36670882293116
  C   2.11482813648889      3.51610665406052      0.06506587745038
  C   4.59923910109952      1.13335969569537     -0.86262940725380
  C   5.20051844656555      2.23154298928608     -1.74187595997511
  O   6.19622679217455      2.04993508083304     -2.39474914237353
  C   5.21089185450829      1.15898291368107      0.51004968953444
  C   5.56193148915243      0.08521227137383      1.22539994390012
  Cl  5.41860936132985     -1.57047138417796      0.66541105176319
  N   6.13438569058731      0.17202873664534      2.47875926591394
  N   5.93219991889628      1.32671008459580      3.26290889191014
  C   5.72992848112712      2.42569391811224      2.52280855188002
  C   5.48603034756041      2.48224876046052      1.14040099769934
  O   5.43832784879569      3.52226215605349      0.41940313428973
  H   0.57301446098828     -0.78219016264376      0.62664218675664
  H   0.50977197616661     -0.23934378085375     -1.04646890875908
  H   0.49346489722764      0.94532666100224      0.26496573575825
  H   2.84584306377453     -0.88147094298607     -0.46390791665912
  H   2.80607970580791      0.15059169942752      0.95360024363117
  H   1.50966875226969      1.17625850826603     -2.45763285923688
  H   2.89308502726135      0.10065576585405     -2.75277549103409
  H   3.04785682291973      1.84830624076123     -2.98793853891401
  H   1.79942584994816      4.44756725653690      0.46743968311855
  H   4.86893566026977      0.19036483861680     -1.34650913041772
  H   4.62594620487143      3.16623878113491     -1.80971428672404
  H   6.04991292622048     -0.66181136851330      3.03653235719134
  H   5.72233147818565      3.35564413306972      3.08183914514564
