26
Coordinates from ORCA-job 24076optt
  Cl  0.82089300691765      0.07200254043230      0.39583069082588
  C   2.54972386948509      0.00488407924166      0.15007408020446
  C   3.21418883810775     -1.19592734945063      0.04845371833153
  C   2.45262703016571     -2.49695988668251      0.11779302279801
  C   3.25478836240742     -3.61641642974139     -0.50853348137104
  O   4.54717938336030     -3.69553221360560      0.06975389578425
  C   5.34453831442309     -2.54944032469159     -0.16849225780145
  C   6.08685947701101     -2.69329265283682     -1.47533513461394
  N   7.40342219521950     -2.66381855317735     -1.53284831006218
  N   7.64887300998965     -2.78208697212888     -2.85129208316922
  C   6.49267454924516     -2.88337889582204     -3.52512131020695
  N   5.48508204576024     -2.83449978413541     -2.69413693222535
  C   4.60987508079695     -1.22580859425838     -0.09308838444218
  C   5.42686997669772     -0.07861153765216     -0.14056385153124
  C   5.00909783764526      1.26366980987691     -0.07040619825325
  N   5.70049808065241      2.36310165585910     -0.10449861541082
  S   3.25379776071207      1.60552128236926      0.10388063128298
  H   1.49827507487031     -2.40557145363577     -0.40500336587674
  H   2.22201814406470     -2.74714958651470      1.15945442365522
  H   3.33722409161917     -3.46644590256372     -1.58876796576778
  H   2.79070313754884     -4.58703330104892     -0.32339742198913
  H   6.11673519754754     -2.56981536296823      0.60627326125249
  H   8.59103714897317     -2.75358524883893     -3.19820478614308
  H   6.44048440619848     -2.98702285529434     -4.59736359818579
  H   6.50050147659301     -0.21949174096103     -0.23825844739620
  H   6.68603250398774      2.12170927822919     -0.20520157968848
