31
Coordinates from ORCA-job 24075opt
  C   4.11375005659357     -2.26683922781923     -1.18790966763054
  C   4.71203319382233     -0.99297209823722     -0.62787978685245
  C   6.23362046234437     -0.97901853783197     -0.72168195714001
  O   6.78383223681934      0.16796631409532     -0.15712384083190
  O   4.20434153469598      0.08613590729182     -1.40624344751906
  C   4.17041843044075      1.35036918853888     -0.87836315905753
  N   3.65746069626672      1.66804207936658      0.23086902690352
  C   4.76142977902286      2.35011849584887     -1.83037909343396
  N   6.15122953101107      2.03192627423569     -2.06321372765379
  C   6.71372695107634      2.71759716281964     -3.03526592151430
  N   6.06252545934926      3.61482691068642     -3.78143115540527
  C   6.67326844173902      4.35009517345216     -4.71316660675465
  S   8.38981963619110      4.75029075905547     -4.64557883308240
  C   8.97482146723926      3.21257216566576     -4.01982588229710
  C   10.42279390573048      2.95047725927710     -4.29704276333373
  C   8.14249484442428      2.41269126411568     -3.34718474861638
  Cl  8.73214991216109      0.86688299736350     -2.78877539572502
  H   4.48303712300659     -3.13474661411805     -0.63908339557862
  H   4.39149863751875     -2.37334716375385     -2.23787343136832
  H   3.02604875965273     -2.24437505747976     -1.12176471037277
  H   4.42549984981709     -0.86345497501715      0.42158060649282
  H   6.50306732338002     -1.07123670911477     -1.78343475393528
  H   6.62391843444025     -1.85513792194866     -0.18993650474399
  H   6.71397725422747      0.89835624863014     -0.83722380348000
  H   3.29020390891638      0.84785190832814      0.71223102458389
  H   4.62219134904683      3.35274448644679     -1.41515310671707
  H   4.18569410001577      2.31174398276071     -2.76601809296314
  H   6.09198380642259      5.02383359830439     -5.32852417802040
  H   10.98002889663152      3.88934596418181     -4.25974397757133
  H   10.54598235345411      2.53577596728138     -5.30073762905164
  H   10.84715166454175      2.25348419757435     -3.57812108732943
