26
Coordinates from ORCA-job 2407optt
  Br  2.26878333236964      0.19166092891339     -2.50408785266159
  C   3.37890115367098     -0.16982249143220     -0.99934636955313
  C   3.04239179945595     -1.23565377581368     -0.15934972253579
  C   1.83217984980121     -2.02807542019085      0.27378883975214
  C   1.50848578130612     -3.21599690771173     -0.64713952997808
  C   2.48105632797476     -4.29544064928342     -0.18237953189002
  C   2.37572157301443     -4.21965494089341      1.35265641668109
  C   1.17989964842698     -4.93432189302304      1.80826058640508
  N   0.23608204243280     -5.48876498369558      2.15464295384714
  C   2.28146600929635     -2.69201271393353      1.65766120266467
  C   3.60799586959417     -2.04451575387906      1.96960677850779
  C   4.60538204296726     -1.75845145384866      2.88037604959549
  N   5.47615625020370     -0.81736406698174      2.37891706612786
  C   5.01417349087889     -0.49859471433645      1.16395011279361
  N   5.40405273089013      0.43054790650525      0.25416282598276
  C   4.53854549318796      0.57061111037287     -0.78723141240476
  N   3.92409753081198     -1.26250197272941      0.91116025513492
  H   0.95045651779221     -1.39290878566730      0.41515244910697
  H   1.63648289287381     -2.94949871179720     -1.69555455209634
  H   0.47840530366196     -3.55238482968223     -0.49334707252257
  H   3.49779885289784     -4.01392162775044     -0.46408394029361
  H   2.26694789979940     -5.29065902462309     -0.57064295349974
  H   3.23733806946584     -4.65853033365942      1.85539836400869
  H   1.54510457636439     -2.51472637215247      2.44074051396396
  H   4.74215396153492     -2.16438772298721      3.87077489876129
  H   4.79594099932623      1.32836920028069     -1.51908637589785
