30
Coordinates from ORCA-job 24080optt
  C   0.91896935036192      0.20502718061356      0.37833601785820
  C   2.39386330165700      0.06572924247651      0.00766737928769
  C   2.50058869489410      0.18739513653749     -1.52143663786813
  O   2.95728977566855      1.27350082791060      0.58974695867823
  C   4.29742357842032      1.22783819977624      1.03999936277651
  C   5.25855587237671      0.66638283222424      0.06896298548694
  C   5.34126598269844     -0.67451902372846     -0.27587581361955
  N   6.51130380839519     -0.88863438710935     -1.00625059525666
  C   7.08498970571513      0.27937443266284     -1.10045833377450
  N   6.38802465851477      1.26243115779599     -0.47392676950855
  C   4.36485290011168     -1.64707164867037      0.07226761329673
  C   4.71213230834813     -3.03440378384852      0.11504835157397
  C   3.86193950638503     -3.93529649665951      0.67665493549254
  Cl  4.32936111749871     -5.63227092261839      0.75133048345622
  C   2.60788452344777     -3.57467114605384      1.21261257520158
  C   2.20698953796895     -2.23855379742478      1.02556060263792
  C   3.00718893989865     -1.26883480722352      0.45708740107223
  H   0.58507000230935      1.19384438020380      0.06075142733344
  H   0.78309800737912      0.12888854256591      1.45722249564960
  H   0.31058352948011     -0.55093877997807     -0.11789328181027
  H   2.07933610111118      1.14515320810500     -1.83725462356666
  H   1.94065159742776     -0.62520167265619     -1.98880795627612
  H   3.53385460683775      0.12852795567589     -1.85396264313706
  H   4.33295648672204      0.61751949601404      1.95468586201784
  H   4.55335415770061      2.25684343166167      1.30734788918491
  H   8.00987080537722      0.48342184128384     -1.61941165001744
  H   6.60780475104381      2.24164005507564     -0.47920670958797
  H   5.67652363976704     -3.34337130191248     -0.26653071884758
  H   1.95273433568223     -4.31202449155902      1.65062832847099
  H   1.19453841680063     -1.99072566114072      1.31810506379497
