31
Coordinates from ORCA-job 24097optt
  C   0.93304259605627      0.08732488303342     -0.24631180638977
  C   2.43283909449456     -0.01128938843119     -0.11012016789908
  N   3.07153248383639      1.16941854208558     -0.06977368898562
  C   4.41477471897327      1.17687380323065     -0.04331080703704
  O   5.10525510150225     -0.01069120105931     -0.36245716736683
  C   4.46106422591433     -1.20388020610672     -0.30237503697722
  Cl  5.54186801895158     -2.46386953383743      0.40581544199168
  C   3.07849075386576     -1.25044414533113     -0.09335775964611
  C   2.36218745515228     -2.57067341680104      0.01206891764851
  C   2.23102865409277     -3.09173230018229      1.44541629038387
  N   1.40922236412881     -2.18762003311007      2.25659129499104
  N   5.12209974976367      2.21479088358246      0.20744498187188
  C   6.53354704910511      2.11379181149409      0.20364459269057
  C   7.31520039096389      3.09286827311873     -0.65336343802141
  C   7.30605694642668      3.23466669162413      0.83327082347515
  N   8.53714080282258      3.02024809846981      1.56620674212003
  H   0.63368091316771      1.10895090243296     -0.02122782266602
  H   0.40410194185400     -0.60105614489793      0.41313687758459
  H   0.62758721627198     -0.13921553153991     -1.27372693275219
  H   2.90589436839886     -3.32004101705952     -0.56871958862818
  H   1.36132239130916     -2.49056144106938     -0.41870676633801
  H   3.23708298700935     -3.23288420973224      1.85516575248227
  H   1.73967135604552     -4.06911993352757      1.42541348589358
  H   1.80154878982888     -1.25155275159470      2.18729630041556
  H   1.46635863985725     -2.44925905286679      3.23376640450938
  H   6.98696703274496      1.13126164671277      0.30324508313964
  H   6.73294028401717      3.79213367017717     -1.23606028789658
  H   8.22862564598836      2.74120434911667     -1.11929590064631
  H   6.69402038571120      4.03568669457346      1.22859801292069
  H   9.19195619850443      2.50364393411737      0.99109708447681
  H   8.35789144324073      2.44502612337794      2.38262908465509
