27
Coordinates from ORCA-job 24092optt
  Cl  0.86577718309778      0.79672439396569     -1.09692944260632
  C   2.76777376950233      0.11587132378977      0.00470583527363
  C   3.37419860707930     -1.03561629659672     -0.41310365619053
  C   2.77350576679053     -2.32361250620374     -0.89558963862755
  C   2.06160466997834     -3.13802435809620      0.21029809171645
  C   3.02849878649009     -3.95399940011286      1.04071363319294
  O   2.84507121525949     -5.13665062231843      1.22742848602869
  C   4.27812705954892     -3.28995339695058      1.59320091274289
  C   5.42908579798843     -3.33311018098165      0.57185246626508
  C   5.14925493591245     -2.54244466038487     -0.71835876180233
  N   3.96128573158006     -3.00890742712944     -1.45060711154713
  C   4.77156134237753     -1.12190142820673     -0.38046144343627
  C   5.57647118346707     -0.08544944036945      0.00348613443493
  C   4.97376328571432      1.16512122248658      0.37608397543818
  O   5.55578425261929      2.19699949167237      0.70773309625407
  N   3.56726639425186      1.14150362236415      0.36090584694720
  H   2.04418438196428     -2.13146717924597     -1.68461600491287
  H   1.34187191584801     -3.83860067797912     -0.21506968952364
  H   1.52030452877836     -2.43816131685819      0.85464000129567
  H   4.56813916936868     -3.85479371609802      2.47920706835574
  H   4.07281135201961     -2.25579522272480      1.87340325938817
  H   5.63177199972410     -4.37762531505533      0.31370840728789
  H   6.32958718972427     -2.93041133264936      1.04252258266720
  H   6.03205737357421     -2.59089748242776     -1.36126032658915
  H   3.87032355202215     -4.01826459193783     -1.43044725122504
  H   6.65607596351987     -0.14682456219296      0.02395598563448
  H   3.13584259179853      2.01729106024156      0.62759754353762
