25
Coordinates from ORCA-job 24105optt
  Cl  -0.03441556813238     10.91513821844759     -1.82286601996993
  C   -1.26063877882983     10.13648832468345     -0.82579460209427
  C   -0.93989065519175      8.99077741330223     -0.07798888216791
  C   -1.69746082904686      8.77906289279390      1.06205200236748
  N   -2.63016078847440      9.60957584941401      1.52830540466878
  C   -2.86936524650578     10.75587973303473      0.83817576795365
  N   -3.71953321379188     11.66212527663933      1.13222642167539
  O   -2.15443015195716     11.03359364504871     -0.33247376496458
  C   0.05673177681273      8.00949048367600     -0.56628636122396
  C   -0.09051448723906      7.51650989094727     -2.03715944758068
  C   -0.73360264427267      6.19704952570626     -1.50424960255624
  C   -0.11037476533547      6.56163768173943     -0.18608442268534
  C   0.75364773391831      6.09333582384390      0.70605363994861
  N   1.53506522721301      7.12589236993269      1.28908729988192
  S   1.77923272685006      8.29184843860219      0.05422699458871
  O   2.05595441513711      9.54257629701991      0.68576944983781
  O   2.74215893996834      7.77878093275204     -0.89148820148146
  H   -1.54856428633242      7.85632767702685      1.61838474349470
  H   -4.16894212978090     11.36170292134595      1.99285052995904
  H   0.87944877727150      7.33946074006915     -2.49565910964637
  H   -0.71156191422939      8.15843419380883     -2.65612838117810
  H   -0.41911404085320      5.26055810106600     -1.96201413490457
  H   -1.82123381066494      6.26697998267207     -1.49018487718522
  H   0.96951467328619      5.06151250834735      0.94517939157049
  H   2.40904904018084      6.84826107807993      1.71806616169203
