27
Coordinates from ORCA-job 24106optt
  C   1.25077980038859      0.58850708795221      0.33223575080995
  C   1.62811939544287      0.01249667194468     -1.02945364819306
  C   3.07985779637412     -0.41391247439673     -1.12267579423691
  C   3.47615439230055     -1.63429365240645     -0.37058704982324
  N   3.41639857458475     -1.65111971280992     -1.82842460105292
  C   4.06753823285161      0.72951446271748     -1.28450831190578
  O   3.76452983869878      1.84790600834823     -0.85761888406336
  N   5.21380889093179      0.37251076411118     -1.89360709396854
  C   6.37212352844686      1.12127268428531     -2.12095774664263
  C   6.62066139245544      2.40289164603585     -1.50419727667032
  C   7.83338203662890      3.01560842974961     -1.82160291144237
  C   8.75166230546208      2.41848848275053     -2.65329148068722
  N   8.53851125691885      1.16555683281869     -3.21399558428997
  C   7.38906282739255      0.61817828490125     -2.92005808705657
  Cl  7.13678979214993     -1.00049178389191     -3.64270243150493
  H   0.19932652160455      0.88285879666425      0.35057592159537
  H   1.86915733174592      1.45806688571330      0.54422701166928
  H   1.40750199311683     -0.15108676311950      1.12095798043067
  H   1.43348492588615      0.75499003360692     -1.80621433753993
  H   1.00261208660896     -0.86150915888524     -1.24399391202437
  H   2.69734425775478     -2.15216212409148      0.18086117600603
  H   4.47432188160363     -1.70605748279654      0.04276754369181
  H   2.57460135075376     -2.11194643101252     -2.15477775448329
  H   5.20560909219686     -0.56112151683531     -2.28592678077565
  H   5.86824565929387      2.86244687569303     -0.88751534654751
  H   8.06334931085871      3.99081744238300     -1.40417934039217
  H   9.69306552754822      2.89258971057008     -2.89933701090236
