29
Coordinates from ORCA-job 2411optt
  Br  0.87515892616494     -0.14409053519213     -1.20208996818486
  C   3.01288022192081     -0.01476974024219      0.12450194623276
  C   3.70429108279729     -1.16799951535502      0.38742391437657
  C   2.96615501825387     -2.44756291977591      0.63217362703701
  C   3.09153806399030     -3.48613610274300     -0.48372311058072
  C   4.39739016694129     -4.27086463916983     -0.47276230187652
  C   5.66418758433036     -3.43119774409131     -0.58613816861391
  C   5.86857033781055     -2.40012792554151      0.53827143054792
  N   5.61105778642141     -2.96026753905541      1.86860287397945
  C   4.40953555400963     -3.10499290448520      2.55909399900697
  N   4.35012659968317     -3.35540744738445      3.80942967818800
  O   3.24607185743493     -3.08627094255765      1.90466513568611
  C   5.11207753714766     -1.11772800226559      0.29619500486779
  C   5.77856014893891      0.03665576497438     -0.01021857099694
  C   5.06624243736619      1.25678655144966     -0.27978802152144
  O   5.55168415530959      2.34744042959754     -0.56490814164455
  N   3.67772788110718      1.10790360753187     -0.18980853095731
  H   1.91611234008416     -2.17728300901550      0.71719587935369
  H   2.94991703554761     -2.95656591849426     -1.42925798471016
  H   2.26417023286533     -4.19244773778572     -0.38219609493096
  H   4.38547175122010     -4.98938112372022     -1.29623302222134
  H   4.44837012876971     -4.85814934388839      0.44798794663669
  H   5.68027978330048     -2.89183303655487     -1.53759923586144
  H   6.52529366392556     -4.10519345770474     -0.57868613122888
  H   6.93044123482301     -2.14948511824706      0.54787084964446
  H   6.36411557906482     -2.78987024442755      2.51250474079881
  H   5.28221376568596     -3.42948830640468      4.20479701952138
  H   6.85811451971423      0.07551260611698     -0.07178783644580
  H   3.14224460537078      1.93381429443185     -0.42751692610284
