20
Coordinates from ORCA-job 24110optt
  Cl  5.80406384208622     -2.14159646711091      0.98249229087086
  C   5.26914060130323     -1.58619118175679     -0.62024470862362
  N   6.15764034805716     -1.00332897172361     -1.32966685242566
  N   5.84603529002795     -0.53897552193997     -2.59500229206428
  N   4.57302039125622     -0.72251774850174     -3.03810453487013
  C   3.68675048241551     -1.32195334802548     -2.30146035405012
  C   3.93180533409048     -1.83741706455769     -1.00010290402583
  C   2.89513872646549     -2.46792443749755     -0.18206958096994
  C   1.91319703070220     -3.37970787354405     -0.77635278269601
  O   2.93289007568306     -3.87581677015722      0.07317741781266
  C   2.45827465646004     -1.66976030319371      1.07447669651384
  C   1.88901154498753     -0.37812527455772      0.68378651920915
  C   1.44235918595687      0.67096916020824      0.32267109542980
  C   1.51340186611799     -2.41031020309666      1.92316343184882
  N   0.76675034524677     -2.98110360168738      2.57878681002839
  H   2.69157837167151     -1.41357495618997     -2.73348068072625
  H   2.02107851680124     -3.63734498995722     -1.82408979892628
  H   0.90823170420829     -3.43382668515491     -0.36785740287691
  H   3.36298713598860     -1.50092115331389      1.66561388041526
  H   1.06264455047359      1.60642739175825     -0.00973624987373
