26
Coordinates from ORCA-job 24121optt
  C   1.28645357508615     -0.13952662738000     -0.18612763736945
  N   2.57855920989030     -0.02787319771937      0.44874540572038
  C   3.44450520218369     -1.21389112773848      0.27135624069659
  C   4.83736170773780     -0.65186937008838      0.23220511940068
  N   5.99934652378391     -1.35357785917844      0.17041943003705
  C   7.02879767463266     -0.48888392083931      0.07728535204978
  C   7.05729027477894      0.91616821611791      0.03646773797119
  N   8.35315105714106      1.36866215849181     -0.06682836742555
  C   9.09863510697470      0.29838216029548     -0.08921452914880
  N   8.35334461714789     -0.85211307121021     -0.00570730982582
  C   5.80894009331513      1.63609545518030      0.09609169735663
  C   4.72947923011334      0.72213404233584      0.19639157615169
  C   3.36621025471501      1.12949733305017      0.27737554525341
  C   3.11625548666743      2.47611652360136      0.27188983248633
  Cl  1.49149939517015      3.12315712814186      0.45186459803083
  C   4.17098275810219      3.41679857993695      0.16071404326491
  C   5.50577858936102      2.99000506657686      0.07298965876712
  H   0.81331043660387     -1.06723700998174      0.14243246968710
  H   1.36591002400872     -0.16660847339652     -1.28442303779055
  H   0.64456568310358      0.69114794451672      0.09284122467246
  H   3.19508074223161     -1.72772248957836     -0.67519092823602
  H   3.28347181125989     -1.93776583561278      1.07900679246897
  H   10.17467346439371      0.27836397692534     -0.16217393597201
  H   8.68320860790693     -1.80039669765862     -0.00141641024258
  H   3.92140929268669      4.46807441156829      0.14863133499094
  H   6.29977918100357      3.72186268364330     -0.00762590299530
