30
Coordinates from ORCA-job 24136optt
  C   1.07477344703758      0.46769099445168     -0.06548387972385
  C   2.56510754881822      0.18167065185418     -0.12814377651441
  C   2.83078929909397     -1.28068063253581     -0.46053264225520
  C   4.26012145604809     -1.80822945511087     -0.30719352376319
  N   4.71526568126858     -1.66575121051580      1.09574490563723
  C   5.25194626487348     -1.33072267692665     -1.35045513803084
  C   5.19015010745961     -0.02480525014375     -1.89964785932598
  C   4.52278400771210      1.08065031790252     -1.13442087775451
  O   3.09708013519720      1.07216781897864     -1.08633311351860
  C   5.84740171478089      0.27027991548629     -3.12593403298191
  Cl  5.29517816262709      1.68613412786750     -4.06184242577266
  C   6.80625594242915     -0.47854551865979     -3.71812511569224
  N   7.37431295544467     -0.27344501332272     -4.99297382695094
  S   7.53151734982510     -1.80970319005042     -2.83822419437605
  C   6.22796382783805     -2.29303793639657     -1.68231556077593
  N   6.33130992831953     -3.47894295526388     -1.14048966258002
  H   0.60039749254205     -0.12672196268121      0.71660622000873
  H   0.61241878086311      0.21946336982240     -1.02312865518579
  H   0.90093384049192      1.52520992415606      0.13591255708928
  H   3.01229117288212      0.40671194903671      0.85342251563613
  H   2.49934808185313     -1.45304916101384     -1.48910601227087
  H   2.20295792467171     -1.88234081459975      0.20380099391860
  H   4.18868913154579     -2.88632340180499     -0.45697119610986
  H   5.05760073982666     -0.72027613048529      1.23798670912995
  H   5.53321683674907     -2.26397224920512      1.18366820914916
  H   4.78712622210159      2.04159053855303     -1.57021762572661
  H   4.88600041501782      1.08232473932965     -0.09479598830494
  H   6.84424415488607      0.40242623073740     -5.52882516345568
  H   7.44775859447446     -1.14633137444272     -5.50421367216196
  H   7.09405878332079     -4.00644164501683     -1.55376816733693
