30
Coordinates from ORCA-job 24138optt
  C   3.15260301686536     -0.89939348821013      1.04940506431310
  C   2.40444093944801     -0.31428025089558     -0.14417794080443
  C   3.09352651449235      0.89801225324648     -0.73381874405137
  C   4.48545499994630      0.64367338345694     -1.26350005564675
  N   2.28147309360751      1.81250701908315     -1.54015222148927
  C   2.70723902965001      2.22066495877552     -0.19064365776847
  C   3.62629367523558      3.40154606291230     -0.06162241537845
  N   2.86188443025087      4.62788720526092     -0.12362837313505
  C   3.44623128253089      5.80576985611635      0.37247129665468
  N   4.39527987989828      5.68281448712207      1.26980279507730
  C   4.90253739455055      6.87796555136698      1.77171413287749
  N   4.47214727621211      8.10503107812905      1.42684494585833
  C   3.54015438900270      8.16574434335759      0.53266692616430
  Cl  2.96842949745366      9.76852146787007      0.04450876304685
  C   2.95534542728365      7.03487678363471     -0.11108203615589
  H   2.59795612179279     -1.72483740720718      1.49755051393590
  H   3.30624353937681     -0.13514125657211      1.81355832108085
  H   4.13181037238615     -1.27803144203090      0.75352409435850
  H   1.39605316351018     -0.02387643984812      0.16464288367417
  H   2.29280829368658     -1.07803234120296     -0.92231340115040
  H   4.49399360640501     -0.26220823532155     -1.87692701080449
  H   5.20264477415972      0.51321792729312     -0.45092103229477
  H   4.81217200695302      1.47613966315152     -1.88144788848617
  H   1.30799844512382      1.52526232103165     -1.53224383266115
  H   1.93301408339599      2.20196097654168      0.57228114696663
  H   4.40689984564174      3.36087496542185     -0.83086286870803
  H   4.12428191361653      3.38417969061406      0.90742966490809
  H   2.43142482201300      4.77674120930674     -1.02612558288384
  H   5.66904207535087      6.80731689464494      2.52966921720709
  H   2.13161609015987      7.10909276295078     -0.80360270470474
