20
Coordinates from ORCA-job 24134optt
  Cl  1.46999668895372     -0.15461291145206     -1.31640083501157
  C   3.08361296988537      0.16675677726037     -0.64734502564836
  C   3.77807907724149     -0.93300162662614     -0.09581838901086
  C   3.31883629451017     -2.34885061039661     -0.10153653607304
  N   2.12459280388623     -2.70968981117797      0.65124257744663
  C   2.33702030759365     -3.71835436457474      1.53957032519434
  O   1.50386164530982     -4.27499550963814      2.23005355006610
  C   3.80972814125063     -3.97080279399137      1.50219620660387
  C   5.77366857700601     -2.81725036549052      0.29537707420326
  O   6.01011675833188     -1.47521295397393      0.69028121105575
  C   5.09734699950268     -0.54285872701940      0.24565394604388
  N   5.54899667029067      0.66545443852139      0.18874815105257
  N   4.73284300288896      1.69775310650396     -0.21961826679473
  N   3.49541504163422      1.37635014891384     -0.70376034964648
  C   4.35955379890573     -3.17788132580971      0.58944563872201
  H   3.18422453546230     -2.71786277232295     -1.13329115331564
  H   1.21015308655148     -2.35101381666913      0.43327647705990
  H   4.29887814971966     -4.65355185562355      2.18076430277669
  H   5.98268945537697     -2.92803940762579     -0.77646853185259
  H   6.47438599569829     -3.43133561880753      0.85862962712826
