27
Coordinates from ORCA-job 24137opt
  C   0.95389872284367      0.66349988497581     -0.15520214182208
  C   2.39281709446099      0.26709917579082      0.14339715445575
  C   3.19136536017194      1.39662350386297      0.73814658504159
  O   3.02206988970688      2.58869246876098      0.30960229550085
  C   4.62477307430361      1.03666430275983      1.12435118577605
  N   5.27969176433023      2.16930002052340      1.81364029626907
  C   5.08286852263531      1.96679026639729      3.25345603380839
  C   5.05514533963957      0.46802089026742      3.37271060978362
  N   5.27940717730059     -0.22054967389474      4.48634880842979
  C   5.26573550709512     -1.54581287792783      4.34684873853953
  C   5.04786745609437     -2.18105168005044      3.13961566872641
  Cl  5.11095496006367     -3.92293046623553      3.06765252928962
  C   4.80425377502577     -1.45328355001381      1.96298996975648
  N   4.57403068584738     -2.06707113370618      0.76285190378071
  C   4.79338487480011     -0.07032263206935      2.12231480877918
  H   0.41088863161823     -0.13801196888422     -0.66269216580645
  H   0.94519213598481      1.55655113343299     -0.77963394156517
  H   0.43329422606838      0.90742105589314      0.77376543932662
  H   2.87519092231792     -0.03479009404734     -0.82347547990478
  H   2.42267994738454     -0.61403277744379      0.78757897377933
  H   5.18830615270680      0.81214199833839      0.18591323148124
  H   4.77379842860141      2.99009436924663      1.48425543271733
  H   4.12895437624214      2.37073513394263      3.62155715497174
  H   5.89466965526160      2.40084706385914      3.84086101657809
  H   5.45503489602405     -2.14584610535149      5.23042545926770
  H   4.90414339081512     -3.00805310751244      0.63807879717093
  H   4.53858303265549     -1.47872520091429     -0.05535836413173
