31
Coordinates from ORCA-job 24130opt
  C   1.21855162747322     -0.55939778701440      0.31525079548267
  C   2.63738277422224     -0.12312364077829     -0.03180091908233
  C   2.82075409238989      0.70223717936830     -1.31277915312283
  N   2.39074991508859     -0.10396260596380     -2.45972846975071
  C   1.93725569764495      1.96240157693730     -1.32742568686032
  O   0.57645891968957      1.67858117409747     -1.57265155692119
  C   4.31204366197906      1.16058200249132     -1.35042221260796
  C   4.88663505573273      1.40523937159031     -2.72435483777775
  C   5.41510288778055      0.33951233199025     -3.44028109041596
  Cl  5.51356302761326     -1.26895341235794     -2.75612557219996
  S   6.08119013759210      0.35420592913826     -5.05248832885513
  C   5.90434861475321      2.04708151477611     -5.40938810539907
  N   6.28936551630210      2.61896235558176     -6.55705789798619
  C   5.95323321865100      3.91287759481106     -6.34136346801459
  N   5.39435488596224      4.20601687342245     -5.16773257409415
  C   5.34797768409644      2.99727625484629     -4.53468967989447
  C   4.84876932715049      2.70045508997357     -3.24683330306796
  H   1.23178808670088     -1.22118468134276      1.18377979469720
  H   0.76197251896954     -1.09648643787707     -0.51673463828621
  H   0.58271887513304      0.29525775581943      0.54121375577602
  H   3.27707472724646     -1.00755381310894     -0.13185558201132
  H   3.05466060592661      0.45882901840826      0.79617727044100
  H   2.83316995927683     -1.01634859008077     -2.42893540460350
  H   2.72618400209278      0.33247955875970     -3.31625346690022
  H   2.32232297751645      2.64425498071422     -2.09456185006274
  H   2.01042701373872      2.46652847808899     -0.35916160720656
  H   0.58914974448705      0.89256795557903     -2.14034215993710
  H   4.91595684097821      0.41829252734249     -0.82701468519933
  H   4.38535850897085      2.08782361184764     -0.77453467499133
  H   6.13307486326689      4.66790317347541     -7.09572490975061
  H   4.45040423157366      3.50364465946421     -2.64017978139711
