30
Coordinates from ORCA-job 24142optt
  C   2.76406629480941      0.58359233161079      1.08755928209867
  C   2.56497778649436     -0.17433002184997     -0.22760692118695
  C   3.03192519119453     -1.59333221350846     -0.14361891400997
  C   2.24910666231189     -2.65709687750092      0.07397232102271
  Cl  0.54088274184678     -2.48097494575350      0.35575726920599
  N   2.76806183014153     -3.93493396639616      0.22350050444710
  C   2.05758754574828     -5.12058322786190      0.28281253976511
  C   2.89519493566903     -6.15374698414860      0.04249113074403
  C   2.57664236510328     -7.60712573361032      0.05873823727325
  C   4.22025923268986     -5.63268800871539     -0.25893726915443
  N   5.13807933976815     -6.53649241093370     -0.59224587721209
  O   6.37289823720000     -5.92229193141981     -0.98756856191435
  C   4.13273621398507     -4.19996951112876     -0.14441518281930
  C   4.97448339059448     -3.10058156133501     -0.33532943996565
  C   6.45941372293370     -3.04793353888725     -0.29119402487236
  N   4.41979654710991     -1.77695187454535     -0.16535178588681
  H   2.49130721213632      1.63656657841758      0.98541060677688
  H   3.80467919910994      0.52093072796805      1.40658722390047
  H   2.14562221340958      0.14049313114527      1.86963126581966
  H   3.12730134031351      0.32874135726561     -1.02316945802516
  H   1.51558271295138     -0.14650308150457     -0.51704520066421
  H   1.00919284016119     -5.12335622578628      0.52785258215747
  H   1.52107482659845     -7.77614770310295      0.28214056820790
  H   3.18549771484325     -8.13145408122833      0.80088239609851
  H   2.81602550749614     -8.06220936862610     -0.90605372100460
  H   6.86963222798875     -6.68741329352602     -1.28111835977259
  H   6.89844426942437     -4.02809735873884     -0.42430165133045
  H   6.80371107931608     -2.62704868089799      0.66851851952758
  H   6.85455078595772     -2.38417039522013     -1.07550463614281
  H   4.87226603269292     -1.11589113018086     -0.78939344308359
