30
Coordinates from ORCA-job 24149optt
  C   1.82853312044289      0.54055834522302     -1.28015092772925
  C   3.00447253665528      0.18656600783709     -0.43006706828136
  C   3.82581325356213     -0.95128727008365     -0.63167931491922
  Cl  3.72483598975837     -1.76008862003975     -2.20552180440084
  C   4.73707171324829     -1.40944133969373      0.28853695107917
  N   4.92039189223173     -0.79559241155473      1.51202833866236
  C   4.10564793901797      0.27071542829366      1.74392740216303
  C   3.18018159295181      0.76680234562954      0.87036314854126
  C   5.69525070346436     -2.51208165218090     -0.00289394416193
  C   5.84735127998455     -3.62467670148400      0.99016661220177
  C   5.33669072522222     -3.91435610797212     -0.39298621676375
  C   6.34867913059815     -4.39355457510828     -1.41774064552889
  C   7.56124037462571     -3.46967587341431     -1.22714899162995
  C   6.97139407197538     -2.13506164137458     -0.75573114911242
  N   7.93140707840748     -1.33093967451773     -0.00253676517208
  H   0.93044525314721     -0.06245191620795     -1.05238231014884
  H   2.03190236407173      0.40917186015379     -2.34393858589720
  H   1.55219041237295      1.58620698468411     -1.11913869239708
  H   4.23445857976396      0.75146968078605      2.71140727313723
  H   2.58541117553472      1.62962408477698      1.15514530983226
  H   5.12757203336079     -3.60742172454488      1.79620037097595
  H   6.83639568236152     -3.96772445742898      1.27414864486201
  H   4.29821681310539     -4.19182774125210     -0.51290723002218
  H   5.92554608260063     -4.25339293251033     -2.41657720148449
  H   6.60894982090972     -5.45044265664612     -1.31064740725397
  H   8.16044295801174     -3.35645760523676     -2.13087145574445
  H   8.22702481761506     -3.85926915740481     -0.45218716716003
  H   6.66556066647922     -1.54752928682881     -1.62676161737119
  H   8.14993407671023     -1.83762794466831      0.85271535525465
  H   7.43798786180863     -0.50321344723135      0.32622908846941
