27
Coordinates from ORCA-job 24150optt
  C   0.99783548658141     -0.05340245022631      0.28023119870668
  C   2.49479432117557      0.01524637832896      0.20764129430369
  C   3.15301091734292      1.06193439677555     -0.27989315696028
  C   4.65414565873216      1.08418482353140     -0.40529320482857
  C   5.20571942422578      0.09869029581879     -1.41008306280449
  C   5.00129677068713     -1.30683633887759     -1.29575562162685
  C   3.83929063461938     -1.96405902215150     -0.59214496621989
  C   3.25740590078912     -1.22020878197347      0.61579315158323
  C   5.76053741565935     -2.09464769423795     -2.21249274372482
  Cl  5.82360154804625     -3.86074474496297     -2.09410513031742
  C   6.51330947463261     -1.54372117546921     -3.18353915758163
  O   7.36787330152527     -2.18239772153814     -4.02661438033967
  O   6.54577302770342     -0.21887150988782     -3.40541876902984
  C   6.02447993778453      0.65835576232962     -2.41244956454269
  N   6.35311753030824      1.90494489549392     -2.56226551326241
  H   0.53805188350407      0.86219878673752     -0.09394772341388
  H   0.65902367689142     -0.21836758440451      1.30842348779843
  H   0.62401057389480     -0.89537104331507     -0.31248334072549
  H   2.59477413793957      1.92546844431695     -0.63354573454772
  H   5.08779123683608      0.88513663358219      0.58692697541007
  H   4.98966416040761      2.07460936947713     -0.70286694908980
  H   4.14653366286895     -2.95866868976789     -0.26222906108541
  H   3.00817796272411     -2.13150241795352     -1.30266659280807
  H   4.07498619972705     -0.95415255214787      1.29355857897095
  H   2.59318790029696     -1.89835838955502      1.16019926758040
  H   7.28084262252045     -3.12651589880629     -3.84742710725553
  H   6.94076463257570      1.99105622888313     -3.38555217418895
