29
Coordinates from ORCA-job 24156optt
  Cl  1.18065163668740      0.64447008771782     -1.36991015155842
  C   2.77816571639363      0.02950561326914     -0.95320091325785
  C   2.97566856021543     -1.32183051614137     -0.84979638111213
  N   4.16755477443390     -1.90952552037708     -0.56008141218680
  C   5.19376489896156     -1.02992878660195     -0.30207626743111
  C   5.07663564918866      0.32465510348021     -0.41578579337918
  C   3.85898570363411      0.94195974860030     -0.83185604788401
  C   3.87470106199086      2.40680826465105     -0.49988453650261
  C   5.38301040067061      2.71926001330853     -0.35130137237500
  C   5.72280019228801      2.33901485282252      1.05926376751693
  C   6.05461392383458      1.39585388645953     -0.08529332247828
  C   4.44689052294093      2.14226170347160      1.86838895409403
  C   4.36630891556207      3.11729184282124      3.04190847201745
  C   4.05408972564998      4.43957421986425      2.34618333635032
  N   3.11685192863394      4.05333024255166      1.28868396827663
  C   3.32223235215339      2.63007856275306      0.92652060937615
  H   2.13547642546756     -1.98813691032390     -1.02392870796528
  H   6.13839604501462     -1.47591268887262     -0.00039108575248
  H   3.35683877769662      3.04681620926333     -1.22248051238819
  H   5.86240220518208      3.53441109974850     -0.87661394128346
  H   6.56821385037403      2.80195067425968      1.55800944734234
  H   7.10714740339336      1.25878252071303     -0.30167548410710
  H   4.31372809088389      1.09944005873454      2.16497536053981
  H   5.28268123818278      3.15747415712146      3.63391978316841
  H   3.54051330404473      2.84243552841915      3.70249564946359
  H   4.98219936577486      4.87374080021918      1.95072790700290
  H   3.60368995314845      5.17068320617190      3.02324665643948
  H   3.21366805804750      4.64158387010008      0.47131704996701
  H   2.39011931955039      2.07695215579514      1.06163496810685
