33
Coordinates from ORCA-job 24169opt
  C   3.01217349951405     -1.52640682272299      0.33490205414751
  C   2.62054485416138     -0.06803880577588      0.20073870695612
  O   1.18908500576002     -0.03534222055048      0.02167190163037
  C   3.07047728375653      0.76781950159569      1.35853776689569
  C   2.91590713059413      2.14764032708746      1.44800394185542
  C   2.40281740008439      2.91903458424208      0.26367772057519
  N   1.00494364039381      3.36160780923439      0.44766782325468
  C   0.85779418241136      4.49988497007869     -0.45488723254963
  C   2.18619610588188      5.26747069477994     -0.37809635961622
  C   3.23657442213040      4.15667893248087     -0.20441830552055
  C   3.98107810591543      3.83950528142438     -1.49629511889082
  C   3.19599417755279      2.68384922734358      2.70082392715436
  Cl  2.91601408290932      4.40724162379670      3.00789400617273
  N   3.65054083989574      2.01657560946780      3.75976357789750
  C   3.82189697570249      0.68029599046184      3.63703675804780
  N   4.29520759612028     -0.11747628150221      4.52075690715083
  O   3.44049568786089      0.04067933850746      2.46410807422609
  H   2.65638213858290     -2.07503606880915     -0.53771700241080
  H   2.56818953181573     -1.95002375746106      1.23358589466800
  H   4.09479510255437     -1.62478336992597      0.41267753456608
  H   3.06935923637680      0.32614191934115     -0.72022642819700
  H   0.87712175183149      0.84375738623799      0.27582465028260
  H   2.38377166300726      2.24118786947349     -0.59380501071600
  H   0.90991675764782      3.68547574569955      1.40574565088080
  H   -0.01222336902595      5.09963325303082     -0.18603370418305
  H   0.69985191086514      4.11826072085563     -1.46961303511044
  H   2.17793626249977      5.91620119671852      0.49941051110651
  H   2.37411794668280      5.88462287714756     -1.25987816488107
  H   3.95824833288435      4.42953585344321      0.56263335449009
  H   3.27472770436846      3.63074106100933     -2.30568892081118
  H   4.61210145500712      2.95659939991739     -1.36867678675267
  H   4.61587020020445      4.67199557121415     -1.80724975484815
  H   4.51509238405240      0.45167058215794      5.33312506252915
