26
Coordinates from ORCA-job 24168optt
  C   2.55062539653595     -0.75903147512462      0.40375666583127
  C   2.27507599012333      0.59993177208880     -0.18974729932358
  O   1.33220630198339      1.26367508272922      0.17121110105625
  C   3.21016030921234      1.08009059355476     -1.30803348320246
  C   2.61036800491202      0.53694107612714     -2.61223341121263
  C   3.23299291188838      2.60837211838650     -1.33896414368188
  C   4.60053323472225      0.54146077127573     -1.08738889362116
  N   5.28924857556727      0.85727304229664      0.01335615742480
  C   6.45212431658373      0.17470078649360     -0.13039910923334
  N   7.47752148569448      0.18218928287674      0.74836866675788
  C   8.54320989193249     -0.52743749928719      0.43861169210587
  Cl  9.83237579612662     -0.44786365588579      1.63818638594979
  C   8.77941518474913     -1.30268105265679     -0.67353256364063
  Cl  10.24853574605005     -2.17037444920607     -0.94664220252605
  S   7.63819393398711     -1.53056991781627     -1.97003279262938
  C   6.37457963087147     -0.52900747239221     -1.35710127750926
  N   5.20318444581334     -0.30010898915640     -1.96161080422213
  H   3.35768286806758     -0.64379997343722      1.13052450475733
  H   2.91181929857916     -1.45403606232648     -0.35549749432452
  H   1.65539600552681     -1.13471826051658      0.89410410440837
  H   1.61194857416560      0.95360706382799     -2.75727719973178
  H   2.55230656919728     -0.55184129608264     -2.60431908429647
  H   3.24984587650816      0.81830110377474     -3.44860518268119
  H   2.22185318002671      3.00100942469160     -1.44550651259132
  H   3.84381390808190      2.94176579832504     -2.17975139819962
  H   3.66998256309319      2.99315218743974     -0.41847642566410
