30
Coordinates from ORCA-job 24163optt
  C   0.89940214721677     -0.12873697855530      0.07056425996561
  C   2.42151211546031     -0.04353397818010     -0.04300779697172
  C   3.01699812153534     -1.42446436556538     -0.39340675085263
  O   2.46757239838308     -1.92774595498142     -1.58742508635498
  C   4.54602620122692     -1.40392541806098     -0.43060660882006
  N   5.21816993054834     -0.94438706098759      0.76479604969821
  C   5.24499834325114     -2.49088182220140     -1.18841236664095
  C   5.24082394050610     -1.07882810366706     -1.70958654832045
  C   2.82680271308474      0.97975069487997     -1.07647120496657
  C   3.52980961979860      2.10655680397423     -0.79053229401936
  Cl  4.00066872009263      2.60109301596253      0.81768402168016
  N   3.82687370370351      3.04772774760346     -1.77034096219394
  C   3.60210106249564      2.73772044910179     -3.13946863896780
  O   4.04162305498415      3.52603993629710     -3.98707570489701
  C   2.87880588086844      1.54332198233543     -3.34469271365654
  N   2.47593392714443      0.69313500070997     -2.36006455840625
  H   0.60651110966142     -0.90634995936069      0.78080229337812
  H   0.46341233432948     -0.36399084806745     -0.89921664741824
  H   0.49241245841999      0.82583000784715      0.40866467471657
  H   2.82159755340535      0.25137690520882      0.92698491595129
  H   2.72697317855898     -2.12089247329068      0.40835073527185
  H   2.36192940713831     -1.14019124978380     -2.17312939157399
  H   4.84568986606685     -1.41459021320041      1.58401189965375
  H   5.06192961917024      0.05171077335673      0.88982320721654
  H   4.62413281117490     -3.20748146318733     -1.70713798396853
  H   6.16283684087590     -2.86155210963526     -0.75386548339758
  H   4.62521119668297     -0.85193756432077     -2.56831483791444
  H   6.15376654836912     -0.50688437301782     -1.62244258961846
  H   4.58708858924832      3.69200647398075     -1.61186494283666
  H   2.63838660659794      1.28210414480550     -4.36661894573590
