26
Coordinates from ORCA-job 2416optt
  Br  1.31986577065174      0.15074759801272     -1.08027214858490
  C   3.12345051337179      0.21690609463023     -0.51684466182416
  C   3.65679760861140      1.46568118460375     -0.17387626066212
  C   3.36799844822392      2.81866680361487     -0.70352938786032
  C   4.29063539768990      3.68087249545296      0.16211633698289
  C   5.56921856186922      2.82599635529748      0.06182477255084
  C   6.11846475782915      2.97043029801896     -1.37375211013524
  C   5.04586340594743      2.49952940047177     -2.36229625217539
  O   3.76899854470087      3.04003293996099     -2.09229562914874
  C   6.56594204799669      3.22227670378153      1.06476601156094
  N   7.31508816843827      3.64842423662011      1.82138800542379
  N   5.02916972648253      1.48714949755877      0.27358448756084
  C   5.84161490866587      0.39286890977376      0.22895207905070
  O   7.06124579036692      0.45864499067073      0.32498297229542
  N   5.17453268408331     -0.79946893716410      0.10244048717177
  C   3.81569072652928     -0.99164400477720     -0.32418316284094
  N   3.34949114606093     -2.19258406399399     -0.50186608517790
  H   2.31712252566846      3.09371719610062     -0.67390272530886
  H   3.94416044999363      3.72763861573074      1.19354540685665
  H   4.44374514688526      4.68040585003159     -0.23953276988117
  H   7.01978830248759      2.36578368603502     -1.47844581817971
  H   6.37380320457186      4.01911238808427     -1.54201577221963
  H   4.99443119415692      1.40455423484281     -2.34965587513628
  H   5.30863213182910      2.81122031917864     -3.37358067464012
  H   5.78911628831437     -1.59325294303882      0.01882405337001
  H   4.06113254857352     -2.88370984949825     -0.27937527904836
