28
Coordinates from ORCA-job 2417optt
  Br  1.35347780975806      0.49438262190533     -1.73722840932408
  C   2.92230858872932      0.17408314835524     -0.12018644002078
  C   3.64317956281260     -0.97854996136079     -0.29945232247540
  C   2.99166782589491     -2.26924086172684     -0.72896864364387
  C   2.06394227343387     -2.88870183805734      0.33261113806600
  C   2.85604288258319     -3.88321233292884      1.19174336436363
  C   4.30171807096764     -3.41704385784805      1.35665802916939
  C   4.96066062985450     -3.25060145025914     -0.02896584548669
  O   4.01652367248265     -3.22194909171126     -1.04924008822354
  O   5.76634914835743     -2.08258370336964     -0.07034513130537
  C   5.04127061304786     -0.92511025938484     -0.09252701246801
  C   5.71063564968297      0.25433383017566      0.09074494704531
  C   5.00097394703970      1.49349174939654      0.14329873645367
  N   5.49302576897544      2.68540229002457      0.19480307135330
  N   3.57522302225555      1.34667159962324      0.21168684038777
  C   2.83930650690136      2.40071564625567      0.76653994014453
  O   1.66587900441513      2.35120475739379      1.01473534042607
  H   2.44648250710707     -2.09196753885334     -1.65431382580767
  H   1.22779891220550     -3.39628987018485     -0.15101877082008
  H   1.65231901459702     -2.07645327323364      0.93331846996021
  H   2.85897008654339     -4.86106472946725      0.70414004041919
  H   2.38621826690942     -4.01383634145878      2.16778797951722
  H   4.88426112136065     -4.12490001573022      1.94796555317670
  H   4.32641287726533     -2.45824359734110      1.87752176596297
  H   5.64059717290580     -4.07048404577207     -0.25545499187990
  H   6.78660948356606      0.26183588847739      0.18921776041303
  H   6.50649803752335      2.62004761404899      0.18657479357671
  H   3.47464754282413      3.26806362303159      0.96635371101971
