26
Coordinates from ORCA-job 24180optt
  C   1.03004413093450      0.06631702394473      0.19398436368061
  C   2.53729859134822      0.08938007255598      0.04264533235707
  C   3.36444282440864      0.92265742441981      1.07244646891984
  N   4.06638963243304     -0.33082566737184      1.43331282131368
  C   3.24808312791843     -1.11315241635345      0.63593403996762
  N   3.08832329471079     -2.35901913234794      0.46946421613609
  C   2.61427020433128      1.57010912298804      2.21404695622213
  N   2.85171015778585      0.92550746900183      3.37273696600842
  O   2.26289557410263      1.51231661679722      4.52734048987262
  C   1.37539937012382      2.47366847846207      4.41811102207371
  Cl  0.74848416460440      2.84889105477670      5.97702754783253
  C   1.00578568120407      3.09579288725614      3.27570832716631
  C   -0.01743804139154      4.13041697439241      3.19423850138962
  O   -0.69772774529345      4.56206529693106      4.11173465174186
  C   1.75494258661820      2.67721634292065      2.05621187392232
  N   1.48832950667034      3.41642524751635      1.00126225008172
  O   2.26288272108734      3.02201524843876     -0.12242769391171
  H   0.60833781697441      1.03588152773554     -0.07114325892851
  H   0.75433855032341     -0.15770888253324      1.22553316870036
  H   0.60786367198204     -0.70871551183404     -0.44753917036585
  H   2.82888249248100      0.30137537328806     -0.98597961906582
  H   4.03783217405182      1.63721044295858      0.60628474741609
  H   4.25180976876158     -0.54944668244294      2.40430957219000
  H   3.70509122805459     -2.88341068725121      1.09030581200256
  H   -0.14758170759081      4.52182353486395      2.17661310556204
  H   1.94431022336535      3.62520884088673     -0.79616249228533
