26
Coordinates from ORCA-job 24188opt
  C   0.86132007421408      0.10818480283345      0.36308566383004
  C   2.29645964129279     -0.03071299071666     -0.07182048661058
  C   3.07866528796311      1.04211587940736     -0.16219600917842
  C   4.50201692474057      1.18175859162399     -0.64132525546759
  O   5.34745921509346      1.24827070048345      0.50999325189499
  C   5.01280046962387      0.17164424924513     -1.63147005193879
  C   5.77728212428361      0.61630912263213     -2.67393298004387
  Cl  7.31856321298802      2.23859609324012     -1.84447785300620
  O   6.36319276544798     -0.18628776461867     -3.53438817904150
  C   6.34144093138828     -1.58765863865804     -3.42295158499184
  O   6.92952947839812     -2.21504346653905     -4.26902943329671
  C   5.59968632324353     -2.07701253264861     -2.30364244754023
  C   4.96006401016110     -1.22843158703120     -1.44203586495383
  C   4.19383038235542     -1.76564686712494     -0.26917155117591
  C   2.69959424516117     -1.45562506182577     -0.35702110232203
  H   0.58737619922941      1.15113361540861      0.51728866007507
  H   0.68001492469438     -0.44099883968475      1.29160426192810
  H   0.18993815487725     -0.31644664760928     -0.38994403065948
  H   2.64076239592864      1.98942073729342      0.14294013570860
  H   4.55787974024832      2.14525191638637     -1.15736261042532
  H   6.20114831834931      1.55932729366781      0.15988789291698
  H   5.58092921783450     -3.14945838955083     -2.17055946961393
  H   4.59493559352670     -1.31640855350932      0.64394655378206
  H   4.33650114817382     -2.84610509588839     -0.21133636171787
  H   2.17232910242209     -2.08977816378484      0.36383393362535
  H   2.32028011835999     -1.75039840303146     -1.34291508177696
