32
Coordinates from ORCA-job 24182opt
  C   1.05960561577244      0.02861705020677      0.26121815120358
  C   2.51460051051292     -0.34113532503747     -0.02961292760797
  C   2.60831780826181     -1.63937283753034     -0.84497447572919
  C   2.21328624142402     -1.43057254188864     -2.30479235850777
  C   2.99144121956213     -0.24650059350576     -2.85621786599852
  O   2.72581237815326      0.91383859970346     -2.10520260949530
  C   3.19169697340651      0.83522028050411     -0.75146824132289
  C   4.70980087249419      0.92296938379214     -0.69161650177509
  C   5.25388285604998      2.09908342968836     -1.17342544552431
  Cl  4.16653978741505      4.15016310703559     -0.53705411504201
  N   6.55746387478697      2.33309206176500     -1.21244744298521
  C   7.11777495245263      3.57963608461008     -1.69953183673462
  N   7.47019040137392      1.46835318325807     -0.70275085375211
  C   7.01733775037153      0.37661143056334     -0.20184412116928
  O   7.91661833849634     -0.49089455904905      0.31276875155544
  C   5.59491108124473     -0.05115684357343     -0.13406940138674
  O   5.32957113623387     -1.14608459496648      0.37379933771920
  H   0.53303292687269     -0.80382762279165      0.73450588137342
  H   0.53262516633511      0.29111562029505     -0.65805612661550
  H   1.00526265133875      0.89120748701336      0.92778151742234
  H   3.03929290696404     -0.50319450825711      0.91304116177055
  H   1.97876294679970     -2.40431343488782     -0.37979190690841
  H   3.63879790979093     -1.99267686592033     -0.79924701191210
  H   1.14354714167733     -1.22225232364272     -2.40137292395633
  H   2.42787361955844     -2.32809439284931     -2.89193336245757
  H   2.70734603292646     -0.01775021689702     -3.88513971779818
  H   4.06831793669790     -0.46926212270792     -2.84005059430159
  H   2.83004313489259      1.76871686716635     -0.31549514790366
  H   7.44884552352307      4.19125104905993     -0.85913809148245
  H   6.33662597975801      4.11153189941261     -2.23142437127787
  H   7.96297003030952      3.35432179503463     -2.34974560328076
  H   8.78080429454266     -0.07364054560383      0.20628825388103
