28
Coordinates from ORCA-job 24181optt
  C   1.17017933468705     -0.15186874993104      0.88068964821093
  C   2.49590215424876     -0.00034137549941      0.18051349697119
  C   3.12409014410434      1.25097497083865      0.13337100023059
  C   2.34614670401127      2.44104255753610      0.63606785842971
  C   4.44062199354635      1.44130897397903     -0.30939294707159
  N   5.09465795713078      2.71685200816777     -0.11306851815389
  C   5.58612600372416      3.34468428541493     -1.19683116059178
  C   6.29546313693821      4.50194627739698     -1.10778968740079
  C   6.48444680980908      5.00144110040562      0.20253898936273
  N   6.05579843603373      4.42262212922255      1.27646504532661
  C   5.36615398973126      3.21256778261873      1.18836096565219
  N   4.97576606856196      2.55349608246209      2.20638997706202
  C   5.18638142988421      0.48202638380055     -0.98868773603378
  Cl  6.95550909734626      0.40991335682161     -0.71120614360325
  S   4.44194673299875     -0.98986546563749     -1.50673535389419
  C   3.02557219460156     -1.18707040987636     -0.40957675097524
  N   2.49384285589826     -2.36137434730937     -0.30359725611871
  H   1.13616797934816      0.42256642507996      1.80856887438425
  H   1.00099453074658     -1.20209978857546      1.10849748020717
  H   0.33326348592299      0.18618441399440      0.25635957323277
  H   1.31294658653881      2.40013515626710      0.28748075637052
  H   2.78411237855762      3.38053420824806      0.30141549313318
  H   2.33869963194161      2.45846807555338      1.72858435563056
  H   5.37041136553495      2.84531258592824     -2.13204554458853
  H   6.68061593211925      5.00016947349697     -1.98249363903617
  H   7.02434864029255      5.93633584267671      0.34579932621034
  H   5.27317918832829      3.07037368150159      3.02940380239541
  H   3.04265523741286     -3.05433563458207     -0.80608190534225
