33
Coordinates from ORCA-job 24199optt
  C   0.60129699464903     -0.53244080078111     -0.08021653930922
  C   2.08365349003741     -0.85985921939421     -0.20808101798525
  C   2.75744067516404     -0.17192023207061     -1.38975753974145
  C   2.96172430719675      1.33036590124052     -1.15494826722261
  C   2.88985445160701      2.18203709876796     -2.41908841872858
  O   3.98591047131875     -0.86884909025523     -1.58332162046476
  C   4.71927816800952     -0.47370768555377     -2.70778230398253
  C   5.79864641167908      0.45977900780541     -2.53700691450238
  C   6.40763508119650      0.90165086256486     -3.71800708955129
  Cl  7.69084435123496      2.11181410426951     -3.56987346035534
  C   6.04995385010607      0.48044360243665     -4.96898911603267
  C   5.01798171060369     -0.51019961150868     -5.11362235671387
  C   4.35651760452459     -0.95817440236074     -3.94747721556594
  N   3.27393736389585     -1.86862841821210     -4.01769542886396
  C   3.25606498957526     -2.79745057958479     -5.12595281024638
  H   0.15311730862901     -1.05104061097839      0.76903940005661
  H   0.06147663484435     -0.83456151797448     -0.98040975899272
  H   0.43305816170240      0.53663229730993      0.06039152091815
  H   2.21421349078221     -1.93682433565916     -0.33798144315579
  H   2.61909300452869     -0.58514765276013      0.70628791968798
  H   2.13475149382382     -0.31087321790509     -2.28533037112705
  H   3.93412045540110      1.45399234067194     -0.67239725250236
  H   2.20512497704754      1.68208925874474     -0.44581139987641
  H   3.66309995984009      1.89359381822267     -3.13084778237084
  H   3.02363519881879      3.23985022890563     -2.18275431298532
  H   1.91584256852685      2.06480300702790     -2.90261037541478
  H   6.18630064052453      0.69911933781835     -1.55823607035469
  H   6.53472734179934      0.90474585361909     -5.83809165715666
  H   4.82057946739605     -0.95113622934905     -6.07878527957133
  H   3.18178475719857     -2.33745562867692     -3.12591052811925
  H   3.05383524628391     -2.26406065842721     -6.05607986589528
  H   2.44933259100624     -3.51588730358645     -4.97363997703236
  H   4.20116678104792     -3.34469952436705     -5.25201266684160
