29
Coordinates from ORCA-job 24197optt
  C   1.36649467133469     -1.18513606483793     -0.60612696627870
  C   2.27610738405674     -0.11341171704647     -0.01553718928593
  C   2.89847094590790      0.79310023794296     -1.07244929889905
  N   1.86316741333821      1.48941381454197     -1.87043121234122
  C   1.64245638477318      2.72357683746023     -1.35012787209170
  N   0.59083573626596      3.48588034141078     -1.62234049244195
  C   0.61681271360193      4.64228522142269     -0.96894858414198
  Cl  -0.74814995631226      5.69526388758666     -1.31295493408707
  N   1.48404516516585      5.10252857102204     -0.11460873930755
  C   2.54557744392235      4.29210049629642      0.14736628752734
  C   2.68230389434069      3.08564669772564     -0.47322929259291
  C   3.70191598331924      1.98406550214425     -0.46291057907476
  C   4.38427596902782      1.73123210220301      0.88616852791419
  O   4.06760677637086      2.42356009384226      1.88922296229433
  C   5.38064736588927      0.70533431668879      0.86205056541750
  C   6.12735164302471      0.40590215947838      2.14221908288875
  O   5.62972983291784      0.03871944750555     -0.18067957995006
  H   1.01926611156965     -1.87267981047241      0.16619944725171
  H   1.89869728968180     -1.77157732293786     -1.35942645938382
  H   0.47640706643399     -0.75906964976538     -1.07532708367091
  H   3.09877914236577     -0.58308026139667      0.52415769725691
  H   1.72804512852251      0.50310144028794      0.70451613952020
  H   3.54261947602552      0.20299554622418     -1.72079537915188
  H   1.08209666020041      0.98698274680601     -2.26185947470344
  H   3.26192133729313      4.64185957201939      0.87757913279974
  H   4.48802035533627      2.22345933175798     -1.18830463552755
  H   5.95955443099086     -0.63655976683972      2.42742905481485
  H   5.80514835912256      1.06293540967315      2.94791717251134
  H   7.20079527551239      0.52457081925611      1.97323170273362
