34
Coordinates from ORCA-job 24214optt
  C   0.99468234772100     -0.53999812870506     -0.95014038692830
  C   2.13716587702341      0.20810331110708     -0.28859432855751
  N   2.57914044262940      1.32582381089218     -1.11013321138330
  N   3.47341561985219      2.11721938803258     -0.34764097637648
  C   4.01175312603594      3.01952768677833     -1.07971600608863
  Cl  5.02255420393510      4.18457855606498     -0.25632035299267
  C   3.91179906218512      3.07319597108183     -2.51376278251369
  N   4.11948526889722      4.24022108116224     -3.13291499671649
  O   3.67928584640798      4.15739814821680     -4.48335077332380
  C   3.77670445468094      1.71578696025877     -3.01410624503240
  N   3.17333698493382      0.82252930755630     -2.28533284639703
  C   4.47109207180232      1.18459572410536     -4.27977709539142
  C   3.49256928024302      1.20691671320627     -5.46201797268727
  C   5.72041040341936      2.00789666779648     -4.62276832538703
  C   4.94211764112810     -0.28838067190500     -4.08334087839116
  C   5.99478467319844     -0.46293082475777     -2.99016796427246
  O   3.87311029574240     -1.19489002796112     -3.88928232542520
  H   0.63625351238736     -1.33784802496211     -0.29675331556263
  H   1.31428648072911     -0.98441226036721     -1.89203374797907
  H   0.16922291305708      0.14175043267454     -1.15988410954843
  H   2.98052307651680     -0.46838276373803     -0.08881374730770
  H   1.81867121245115      0.63765112245386      0.66031105256952
  H   3.80444902238611      5.06205823425870     -4.77865045441427
  H   3.14907309409314      2.22201729497810     -5.64804783938575
  H   2.63700131693634      0.56519582359270     -5.25534695348033
  H   3.99348554464761      0.82950166512976     -6.35951155309046
  H   5.44765347731397      2.97302244777923     -5.03841042183897
  H   6.31967834564324      1.46333132509269     -5.35900122886273
  H   6.33400469376519      2.18505836036738     -3.73914010019382
  H   5.39411252018071     -0.57437792899498     -5.04028964219554
  H   5.62312440013948     -0.09319814408859     -2.03295865960130
  H   6.91954507618484      0.06182061252141     -3.23271982204685
  H   6.21651247064230     -1.52617590695554     -2.88904012981584
  H   3.37599524308971     -0.80560596267220     -3.14334185938092
