30
Coordinates from ORCA-job 24210optt
  C   0.84102728552648      0.01556092962223      0.12136434625540
  C   2.33048737616549     -0.02942318582956     -0.02052447548485
  C   3.01362998618128     -1.25846083775222     -0.14404469252483
  C   4.39358902708497     -1.24628063460186     -0.27732200630565
  N   5.08680881214201     -2.46325363217812     -0.47316907192993
  C   6.48746157941467     -2.46670396275842     -0.09637799081636
  C   7.06678873683339     -3.79940297962884     -0.27023657429963
  C   7.53544920865709     -4.89584876240944     -0.39987444199449
  N   5.14464411148146     -0.15081044549340     -0.27275184262595
  C   4.51104605319633      1.05817208525414     -0.15141439800762
  C   3.08119259488616      1.15860493618798     -0.02218866012732
  C   2.49808680641241      2.45046858551947      0.09650770618291
  C   3.31863751549849      3.56724313236331      0.08626906373403
  Cl  2.57619446032171      5.15620469428528      0.23182606756367
  C   4.68975627560895      3.48627585301207     -0.03392252246974
  C   5.29507679155515      2.22169885881712     -0.15111799170797
  C   6.78383210760693      2.09717109107456     -0.28971040167355
  H   0.41841808891954     -0.99031354080807      0.10901532272128
  H   0.37161559334407      0.58844355895457     -0.68771886684350
  H   0.53603705729285      0.49852278462954      1.05814421384998
  H   2.47010276107306     -2.19686533358301     -0.16436813792186
  H   4.58354199752981     -3.25182817232460     -0.09362486121927
  H   6.64776893231495     -2.13822530686591      0.93982121190387
  H   7.01536539544209     -1.74691139240136     -0.72187922188886
  H   7.95416225018715     -5.86491271183151     -0.52162413396872
  H   1.42815094404870      2.56827504631877      0.19323722723473
  H   5.29076344241358      4.38658292160264     -0.03604666179023
  H   7.25952096845547      3.07929163280860     -0.26679073096614
  H   7.05276913513937      1.59629617008205     -1.22433685879854
  H   7.20507470526634      1.48242861793397      0.51085938391913
