28
Coordinates from ORCA-job 24213optt
  C   1.03768374218762      0.60018839602068      0.43665781174885
  C   2.43193623962987      0.22257180059103      0.02732973897757
  N   3.34645617340988      1.24863347646783      0.09870290584906
  C   4.63798320426366      0.90707499098744     -0.16819589722976
  C   5.03753628861779     -0.33819743221209     -0.57237837218009
  Cl  6.74381591522928     -0.64140121914007     -0.89617397344734
  C   4.09709765372216     -1.36696337766318     -0.80324912472466
  C   2.76278661062080     -1.03346198059719     -0.39963204683049
  C   1.94305053668588     -2.27489281994700     -0.45812779834448
  C   2.34930485979893     -3.43443885758017      0.44513848867047
  C   3.54581800070947     -3.25384558052490      1.37306225779813
  C   4.76908276808970     -3.43865549078735      0.46121116812800
  N   5.12036413256874     -4.86561454711476      0.40145893000938
  C   4.27530591051067     -2.85319289452995     -0.89316066311459
  C   2.82477321096360     -3.37770714075372     -0.98094747428581
  H   1.03721448403616      0.98293884644412      1.46104360875622
  H   0.34893598071993     -0.24321649385983      0.37672409700341
  H   0.66595498487228      1.40923368444684     -0.20066679919911
  H   5.38164787170668      1.69131758828327     -0.06262417047285
  H   0.89957526338224     -2.23675216021825     -0.74542841709466
  H   1.56005103069887     -4.11912402948094      0.72942419740882
  H   3.55394839021047     -3.99031463234011      2.17758742062563
  H   3.54741797203321     -2.25360869850297      1.81408429403876
  H   5.64145174869304     -2.89012488620532      0.82062671979093
  H   5.83375593593124     -4.99970264259972     -0.30894297427082
  H   4.30389113809015     -5.37712889217525      0.07393178650841
  H   4.91853478999736     -3.19316086953321     -1.71222935949381
  H   2.50462516262026     -4.07945413747518     -1.73922635462519
