32
Coordinates from ORCA-job 24221optt
  C   1.16447881753897      0.81092614990438     -0.16153264783056
  C   2.60704508419914      0.34099172207441     -0.01588632482141
  C   3.15408924876593     -0.28212110712699     -1.29314553712816
  C   4.58549418766558     -0.80546576497402     -1.14200773265290
  C   5.13653852823411     -1.33188528343351     -2.44207866447066
  C   5.13557402917288     -2.72070784183112     -2.67537564028170
  C   5.52223378188659     -3.21773961760428     -3.90832234095034
  F   5.50817809796146     -4.57013764034418     -4.08028921024522
  C   5.91688123967461     -2.43288315557078     -4.96939769507766
  C   5.93050938229611     -1.04406087917366     -4.76053900193433
  C   5.54903860543482     -0.51949406072885     -3.48910617465895
  N   5.66481224377292      0.85420676772068     -3.62584790784042
  C   5.78414026363292      1.80099020094489     -2.53932960956821
  C   6.12777868322287      1.09571823606607     -4.92947508608869
  C   6.39076148495743      2.36880149220298     -5.48730776394234
  O   6.23069818556186      3.49282370752780     -4.93922148218423
  N   6.26673096271867     -0.06040378980129     -5.61562579791307
  H   0.78445706915000      1.25052385520979      0.76244307464689
  H   0.51259217599735     -0.02298557724986     -0.43068507583087
  H   1.07981987740937      1.56073535775054     -0.95046919025744
  H   2.67776503091668     -0.38624850596617      0.79954202781080
  H   3.24166938160832      1.18573474453880      0.27140096757660
  H   3.12170421367565      0.45128574139432     -2.10489232583208
  H   2.51136639812492     -1.11020033976950     -1.60914850755164
  H   4.58860124501500     -1.61211728178175     -0.40321178900418
  H   5.21470279766720     -0.01171131793950     -0.73410964816185
  H   4.82612654042138     -3.40960242180591     -1.89987549345863
  H   6.20586411373726     -2.86859345293618     -5.91528157438977
  H   4.87081704063861      1.83250116020261     -1.94085600891178
  H   5.96081495018494      2.78087295896371     -2.97459773838447
  H   6.61931729833822      1.53070466386902     -1.88341912138470
  H   6.76639904041811      2.29454127966753     -6.51935097927794
