26
Coordinates from ORCA-job 24220optt
  C   2.48303320669977      0.58110295880957     -1.40340287570321
  C   3.59824284376852     -0.34005735931005     -0.95167425531638
  C   3.21604655866819     -1.60638274004526     -0.35382096266005
  O   2.02849662921341     -1.60703414447037      0.35399099315039
  N   3.74657236386117     -2.76526427222472     -0.49075316506837
  C   4.94239653016915     -3.02164225850139     -1.05200682082196
  C   6.11346571940382     -2.18842158982102     -1.07412889675013
  C   7.32846226866594     -2.86775546085835     -1.15327308926225
  C   8.51176653457402     -2.15672881263201     -0.99057987145951
  F   9.69346124709482     -2.83718502860221     -1.06699922514507
  C   8.56304251989086     -0.82200168612079     -0.72548791567942
  N   9.74236136133253     -0.12621241028524     -0.46888686735535
  C   7.33042282357389     -0.04261219578144     -0.67209056701824
  O   7.43610254073561      1.18003353060537     -0.41262057567433
  C   6.11040216921940     -0.76461362694083     -0.92837924042970
  C   4.89979939826735     -0.00006354638677     -1.18942428905459
  O   5.15160501196402      1.18891320566115     -1.79347062060161
  H   1.52713151766576      0.05807135525323     -1.40865283313068
  H   2.64818389144541      0.92594165277842     -2.42931894728277
  H   2.36478942046259      1.47352496192794     -0.77441284385602
  H   1.83692414099426     -0.70175449965511      0.61356216825068
  H   5.11308744052833     -4.07075552876858     -1.27037513923997
  H   7.35987334706707     -3.94232698554498     -1.27059930531982
  H   10.53385681598828     -0.42833911369480     -1.01652504264586
  H   9.54551378646430      0.86812315790704     -0.53292022564110
  H   4.36695991228139      1.74244043670121     -1.77074958628468
