34
Coordinates from ORCA-job 24231opt
  C   1.19532663431116     -0.17697036948471      0.11362804543124
  C   2.67525713996705      0.08804142005879      0.07687090623550
  C   3.39418567384791      0.35516826222686      1.24365892924238
  C   4.80688874398890      0.58578638254162      1.23834104649309
  N   5.55355982275190      0.89899726242784      2.26152299073095
  N   5.43385500458175      0.38501056224766      0.00232375505187
  C   6.87728322068900      0.21754218937708     -0.05649324248262
  C   7.38142193226450     -1.22873860611968      0.16525999597691
  C   7.31824335304128     -1.63056915549302      1.63749401197504
  C   6.54806998715127     -2.25051274363228     -0.61690241204207
  O   6.47520014407730     -1.99165578966572     -2.01163175132167
  C   8.84635799437267     -1.29912653259440     -0.28124726597866
  O   9.05979575134465     -1.04187277371252     -1.65479827157949
  C   4.73093630343004      0.22178737934106     -1.19938141023304
  F   5.18858731437002      1.14870950284717     -2.20191398442502
  C   3.33522527975958      0.12348683187386     -1.13640929447771
  O   2.60670576945784      0.08122741983496     -2.31065132814407
  H   0.84485775014645     -0.25179636302908      1.14345303306294
  H   0.95160427112462     -1.10635373832094     -0.40610430185816
  H   0.63867043265025      0.61854539649229     -0.38703615277675
  H   2.88193281083261      0.41672778708918      2.19533575625505
  H   4.95561910309681      0.97519937596646      3.07882240356511
  H   7.32232281601641      0.86226371265230      0.70098821879969
  H   7.20703504472373      0.55990802148917     -1.03635407891878
  H   6.29196838403861     -1.60764573401565      2.00088498536875
  H   7.88632074077937     -0.93388520926208      2.25523516955791
  H   7.72276104900924     -2.63923177450915      1.77346109227364
  H   5.53870586649184     -2.28562383199025     -0.19359849511093
  H   7.00185620255381     -3.23959466425244     -0.49771701842549
  H   5.78438640564718     -1.29447728186418     -2.09681840913195
  H   9.23627460226756     -2.29360465238113     -0.01829530746956
  H   9.42887924110530     -0.56087561462137      0.28004284500372
  H   8.27169286730262     -1.35442895363495     -2.12744132124381
  H   3.24421234280638      0.16056228211724     -3.02952913940398
