31
Coordinates from ORCA-job 24246optt
  C   2.14642843583846     -0.87191449750289     -1.03364770747105
  C   2.69600094229225      0.09965636288501      0.01367163384047
  C   3.65689820712052     -0.61155856131759      0.95936518679732
  N   3.33736851903208      1.28481880205457     -0.56261461734239
  C   2.40883656781605      2.30891280709241     -1.03835280828529
  C   3.22464749519467      3.22822573733965     -1.99227398682909
  O   3.72098267186889      4.36898503575007     -1.30000143848366
  C   2.38900189621951      3.70651922186519     -3.17538666294231
  N   1.30548046615596      4.57747952284357     -2.69664439047204
  C   4.33698989686226      2.31179563178079     -2.38645785813046
  C   4.22126630323878      1.11356177837371     -1.65894130681388
  O   5.29636911594367      0.28735284642105     -1.51666449337990
  C   6.39529123432837      0.45173793448055     -2.42702752611962
  O   7.22069433050563     -0.42990510339012     -2.34329673938890
  N   6.42627215779250      1.51810669643156     -3.23304218369442
  C   5.46160724192745      2.43516578241845     -3.13499836234696
  F   5.64772318003862      3.53648740919454     -3.90374324699840
  H   1.55926687580522     -1.65484311395480     -0.54812549825795
  H   2.97004302489384     -1.33599056171867     -1.57785905317862
  H   1.51105467156652     -0.36241233410893     -1.76032459521994
  H   1.85803439888606      0.48512736785350      0.60490522302024
  H   4.51731293337621     -0.98557790878532      0.40479868256558
  H   3.15737590943872     -1.45046771577176      1.45042440647358
  H   4.01829274418474      0.08244130726123      1.71815871082585
  H   1.99603131498779      2.87584795057351     -0.20220629027692
  H   1.58180773765970      1.84653454184083     -1.60360047909511
  H   2.99666643669838      5.00986069081252     -1.31116039333506
  H   2.03810292661404      2.83362762435890     -3.73512076740804
  H   3.04095383394936      4.29309519361772     -3.82362882885674
  H   0.57577986249694      4.02487237615611     -2.25998636153761
  H   0.87841866726665      5.08245717514456     -3.46221824765860
