27
Coordinates from ORCA-job 2424optt
  Br  1.78842376662652      1.73236133393895      3.08027120128219
  C   2.95790579795449      0.49750225171437      1.10637271704922
  C   3.75112756939131      1.31447988480287      0.32273443447154
  C   3.39415911159177      2.75975068545665      0.02864698533177
  C   4.67387419104969      3.59225265347836      0.06204731610516
  C   5.32553234905760      3.06944388246472     -1.22157687544531
  C   6.32115396480645      4.00389192005106     -1.88052618933151
  C   7.50864262239584      4.41349938147121     -1.05896118343899
  O   7.73994318350936      4.07860748183901      0.06917062350101
  C   5.87796870371599      1.66454083238664     -1.00479977006679
  C   4.94329518512162      0.79276561550234     -0.19080077929882
  N   5.34144754618589     -0.46065978525238      0.01953713108690
  C   4.55646662465821     -1.23006745901664      0.77438396593828
  C   3.36849771346568     -0.79982774680054      1.35025565989458
  O   4.20911511715858      2.98776205374664     -2.14280817289568
  C   3.04005385143506      2.84885620840129     -1.44440493532733
  O   1.98582020974026      2.80819006015077     -1.99726199493800
  H   2.58101413959533      3.07954464879114      0.67432123904071
  H   5.27875749099024      3.40536353412832      0.94549384401310
  H   4.46564978049009      4.66201053824200     -0.02312451914411
  H   5.80994379883340      4.92514229804990     -2.18403794782498
  H   6.70192191941963      3.56367450236764     -2.81004177396699
  H   8.20658076399203      5.09627964648321     -1.58636400101793
  H   6.83514506157100      1.72641899935721     -0.48194157418843
  H   6.06007239318580      1.19831073890853     -1.97722995501837
  H   4.90494037373297     -2.24758454716074      0.93349631094351
  H   2.79254677032506     -1.46350961350262      1.98414824324528
