35
Coordinates from ORCA-job 24240opt
  C   1.99241791049097      0.27259222582841      0.68272459940489
  C   3.32296080134215      0.61669903988321      0.02243040732811
  C   3.06861342257687      1.20166332376941     -1.38159547779140
  N   4.27999810599540      1.35567745146410     -2.20708030676539
  C   4.88078539865747      0.01774553329119     -2.34094287678788
  C   5.48510621598482     -0.25196888058646     -0.95172484305470
  N   6.39714472669806     -1.40416113929014     -0.95065659276673
  C   4.27836620906397     -0.58107833050316     -0.03777012877939
  N   4.73735276032046     -0.93446537850250      1.30491900230991
  C   6.08423894390016      1.11324343571523     -0.71488847356626
  C   6.89396824342170      1.64935893948410      0.30748122834266
  F   7.61566548314995      0.76535084947300      1.07078420456671
  C   7.06881946566517      2.99010423858040      0.50518636586154
  C   8.05870220059258      3.51453870008763      1.50225522425065
  C   6.35810457671240      3.91278072852817     -0.33555001761247
  C   5.40270143081309      3.41061880276292     -1.26560204656518
  C   5.28640656948215      2.06251699328657     -1.42605788141979
  H   1.31784561134908      1.13211761963569      0.65773711519249
  H   2.10964021882013     -0.01048983162760      1.73100823920370
  H   1.50043984323630     -0.55410187002982      0.16076336234572
  H   3.82823292570054      1.38448369348087      0.61579800553661
  H   2.59892002786104      2.18178516880366     -1.27422574821628
  H   2.37118550981946      0.55572876355738     -1.93056369153095
  H   5.67836543478336      0.05136911585444     -3.08681583278151
  H   4.13045878779173     -0.71723764165766     -2.64161056788636
  H   7.07848635167419     -1.23269384355573     -1.68734564312951
  H   6.94848919886632     -1.33970270851836     -0.09796866653475
  H   3.74729691793715     -1.42605369744833     -0.51143069367917
  H   3.94914851369698     -1.10562064455221      1.91766264600442
  H   5.26509423795591     -1.79888223908024      1.25922494124987
  H   8.85332599365685      4.07612727418455      0.99385572365155
  H   8.51842068661052      2.71165501188523      2.07645046083513
  H   7.57967706513479      4.20787975948684      2.20104048978546
  H   6.44683491330935      4.97484179698378     -0.14560460900386
  H   4.77978529692867      4.08057773932540     -1.84888791799783
