28
Coordinates from ORCA-job 2425optt
  Br  1.56805733824481     -1.78646362402849     -1.56854419007335
  C   3.17747930083964     -0.98072597274547     -0.93607944730299
  C   4.03364929490630     -1.66720892419024     -0.11202660400937
  C   3.86045344630147     -3.09370915684659      0.34847076218955
  C   4.98994458229639     -3.25460873366510      1.40195058829146
  C   6.05207496679328     -2.19914720908534      1.04906962229479
  C   7.23263507916916     -2.74746384504339      0.21966596684475
  C   6.85383361749998     -3.71108922734693     -0.89526140277628
  O   5.94810006293805     -3.11495694297069     -1.80246851372519
  C   4.76510459662317     -3.83031279088474     -2.01913934021298
  C   3.95645342714933     -4.13532597753233     -0.75805562598042
  O   3.39406201029652     -5.20058472884193     -0.66362393927074
  C   5.25636712205366     -1.14841455010954      0.31321796083890
  C   5.77292160367784      0.11780325209654     -0.01264569308100
  C   5.14498366125292      1.07216983321489     -0.81750590615221
  O   5.52125006753053      2.18658121235032     -1.15701392353584
  S   3.46421335704366      0.64100126583775     -1.50817424951764
  H   2.88572440379037     -3.27561424553946      0.80600155990250
  H   5.37799931411156     -4.27472528601799      1.45039619794362
  H   4.56564410288719     -3.02429286299922      2.37934367327424
  H   6.48532108903274     -1.78074099986398      1.96506391896541
  H   7.93382087555046     -3.27537929900972      0.87666416977260
  H   7.76769733811472     -1.89919934096037     -0.21450470275904
  H   6.42092844212087     -4.62738704092298     -0.47568785243278
  H   7.75341549451423     -4.00990390721190     -1.44589338159917
  H   4.94815872364822     -4.78901857153899     -2.51917908242408
  H   4.13380809616524     -3.20861120678623     -2.65995430217688
  H   6.74789858544767      0.41432888064213      0.36091373671216
