31
Coordinates from ORCA-job 24251optt
  C   1.46513166674863     -0.11473854674245      0.18064544071800
  C   2.81498382261893     -0.76527259963631     -0.02368982049359
  N   3.43157427185259     -1.47154329444206      0.84859498966934
  N   3.34789357743508     -0.54151407211560     -1.25195886496637
  C   4.73360478643035     -0.84317134029882     -1.56310558699835
  C   4.98158941621111     -0.49607790954362     -3.03193445872002
  O   4.46089332054714      0.79369614631104     -3.28880118948832
  C   6.48606863590163     -0.45911562427337     -3.35322546786076
  O   6.96476050464060      0.71115404028788     -3.42775960447704
  C   7.21029121076734     -1.66422356608853     -3.53671052029393
  C   6.57635891248633     -2.94456558161561     -3.49453863957951
  C   7.33487858438348     -4.06614940840871     -3.71569182427314
  F   6.70677964020840     -5.26871800364015     -3.67931759113308
  N   8.62028571194513     -4.12635541522962     -3.96418222652465
  C   9.22750712828907     -2.91433965166084     -3.99489338792456
  C   8.62746134190231     -1.69693951632548     -3.80090554419913
  C   9.46985995308245     -0.45416122943842     -3.86326325667316
  H   1.01243862348485     -0.45262782631902      1.11063747057122
  H   0.79590891164964     -0.34927929131916     -0.64814443291299
  H   1.57939406409714      0.97051267625234      0.22141840110952
  H   2.86456333940449     -1.56448210913560      1.68498268222271
  H   2.98344155071556      0.23295233136310     -1.78825101525308
  H   4.93522209931262     -1.89432639594057     -1.35973819461034
  H   5.40519756535632     -0.24817189733153     -0.93368583439828
  H   4.45063854527903     -1.21170634189886     -3.66771228077259
  H   5.28470994551054      1.32085922178732     -3.38928867961343
  H   5.51993578808087     -3.06319572223962     -3.30222213645097
  H   10.29543377951883     -2.94099171421446     -4.19510834073802
  H   10.51222654533483     -0.72539376195588     -4.04484781298618
  H   9.40327786894429      0.11693171221888     -2.93689157962730
  H   9.13168888786011      0.21995469159385     -4.65041069332184
