32
Coordinates from ORCA-job 24268opt
  C   1.00422319992720      0.02349531044091     -0.33288473025483
  C   2.51553262860770      0.05756280533804     -0.05996398746187
  C   3.29378035347053     -0.39237920754979     -1.30781808550201
  N   2.93589041205065      0.35702666907310     -2.52520952150238
  C   2.90629560366770      1.50392422795192      0.25942943592656
  O   2.22965352821675      2.02395244667117      1.39146321195252
  C   2.90318824163518     -0.85396759164584      1.08565619850890
  C   3.74050550660082     -0.51845040487436      2.17406133779882
  C   3.92235252044073     -1.64528802355571      3.00198437555471
  C   3.20775406780013     -2.69432482672831      2.42687986878691
  C   2.55928352022845     -2.22765265783765      1.22936610036866
  C   1.76255402884481     -3.10982183265174      0.46416733348569
  N   1.72606482698220     -4.48909240664511      0.82319248500115
  C   2.30012804967196     -4.90001004569805      2.00728912398561
  O   2.10029881097611     -6.22937066548494      2.28292987119019
  C   3.02847053134979     -4.06923920820251      2.76600522400642
  F   3.65914057377187     -4.61162988696462      3.85580927128675
  H   0.73435075758393      0.74352168521269     -1.11167078750025
  H   0.46019037481783      0.29207316522938      0.57179978466273
  H   0.67265093874674     -0.96965731616448     -0.63448059907295
  H   3.14907569657412     -1.47311706738131     -1.41617091788269
  H   4.35691521715646     -0.22976973963971     -1.11399134772354
  H   1.99491564080154      0.11172899013913     -2.81175227436762
  H   3.54618294931290      0.08093292128487     -3.28555314191547
  H   2.65047848183674      2.14557745950362     -0.58460656499637
  H   3.99276111513253      1.55487641591647      0.40655204616067
  H   2.28466598235340      1.33772585263962      2.07197256519876
  H   4.20903202145669      0.44365799315600      2.34010451726051
  H   4.51257305447113     -1.69137545087196      3.90530006915936
  H   1.42248025933522     -2.91422619619198     -0.54184796487874
  H   0.86327666197646     -4.97525670289025      0.61951197296853
  H   2.51633444420149     -6.39842671157847      3.13547512979522
