34
Coordinates from ORCA-job 24266opt
  C   0.83300185128347      0.16659762049623     -0.02809943917961
  C   2.36683170126994      0.01403360971194     -0.01313441442308
  N   2.81896987570209     -1.39194466524001     -0.03719787295882
  C   2.33701910233573     -2.08435465801064     -1.21326600730282
  C   2.55929077887582     -2.11351181372666      1.21203130925034
  C   3.00390031187516     -3.57371498998276      1.08548657132904
  C   2.93398587204834     -4.33936958848333      2.39494634651287
  O   3.16313818145767     -5.73350867080329      2.21134866440359
  C   3.28016303502580     -1.42382347001979      2.36947955503309
  C   3.03849359354340      0.05624374671084      2.40279872838116
  C   3.49642112549095      0.83950995468628      3.50037997046487
  F   3.52790315999158      0.26199290306283      4.73952983850127
  C   3.78226276068256      2.16477365030948      3.39106268241381
  F   4.09904781034670      2.87044629025251      4.51302190570021
  C   3.67477008428535      2.85998842441680      2.16912547480969
  C   3.25610527378123      2.09373087491456      1.05461429657741
  C   2.95216345446945      0.75891093900340      1.15888998933507
  H   0.36529634476155     -0.38929795880038     -0.84540069213230
  H   0.58489597775097      1.22176844183270     -0.14578244650114
  H   0.40850750961306     -0.16805496697222      0.91946600129893
  H   2.75659399758226      0.46079546550850     -0.93348518438068
  H   2.39581669181041     -1.41106267101907     -2.07040167606781
  H   1.29091406386253     -2.42751747597742     -1.13016731531992
  H   2.95594359156614     -2.95521495540060     -1.43410782788707
  H   1.47455191110283     -2.11662145742269      1.43132289719967
  H   4.02510052425087     -3.60869057450664      0.69526096392391
  H   2.36082662969146     -4.09636646786037      0.36771789519374
  H   1.96166233647075     -4.17486513739744      2.87569390531642
  H   3.70484798933482     -4.00236988501207      3.08549903387400
  H   2.59764130740755     -6.03261307629425      1.49391134182085
  H   4.36120860071918     -1.64944363497804      2.25042614949216
  H   2.96701855438909     -1.88202522420148      3.31015407441883
  H   4.03601040243520      3.87459611259247      2.08584481084704
  H   3.14069559478602      2.58298330861065      0.09003047005526
