28
Coordinates from ORCA-job 24260optt
  C   0.82374823836381      0.08915242015530      0.19053190341555
  C   2.32881637404263      0.05975220905922      0.07353256978465
  O   2.62922695132445     -0.08611467620196     -1.30212082446352
  C   3.13230155357329      1.19936349408168      0.73855800406657
  C   4.20247523025401      0.14548802788392      1.17165158776330
  N   4.72336696390942      0.21743916943857      2.54163974005649
  C   3.10805539687514     -0.93470374257269      0.96117620727342
  C   5.32939073870514      0.02813303021617      0.18296741146088
  C   5.98195962854364     -1.18831254165971     -0.04549067623436
  C   7.16883952181238     -1.27314813080735     -0.73687406226267
  F   7.66918784148336     -2.53087217998789     -0.93741704889579
  C   7.91838170096200     -0.23359656761203     -1.28071774652473
  C   7.60120614746070      1.13418241386881     -1.11137283463067
  N   8.22788057565520      2.18423240107983     -1.53568509877933
  S   6.15308756071185      1.56505223553801     -0.13846326278049
  H   0.42051026891753      0.92967954758600     -0.37781452854659
  H   0.52192233618071      0.19049889254055      1.23398460341548
  H   0.39933648240890     -0.83301637621885     -0.21168960708578
  H   3.59716591209438     -0.10561598852762     -1.38070751216921
  H   2.60215309269339      1.59051243757521      1.61147173788984
  H   3.44815126006729      2.01864848097705      0.09286629971983
  H   4.06945975702164      0.69505979827881      3.15343268441370
  H   5.58882819174521      0.74736035406182      2.54448926999533
  H   2.58540181217410     -1.11963617595567      1.90290111140153
  H   3.39453598118415     -1.88032081873693      0.50270073115272
  H   5.54612979077585     -2.10861969602536      0.32247952064255
  H   8.81630660060524     -0.47802275318601     -1.83473982018073
  H   9.05517409045424      1.88342473515111     -2.05029035989796
