25
Coordinates from ORCA-job 24272optt
  C   3.64079320670841     -2.98585529685167     -1.75927214832587
  C   4.62133030386805     -2.27570285478457     -2.65307954153993
  N   4.62454639710705     -0.85463736061325     -2.49183261132828
  C   5.59198993627798     -0.36881948903083     -1.81187202149120
  C   6.60513853905307     -1.22222203246307     -1.18809891423349
  N   7.89903703127550     -0.89986976034398     -0.61569884495205
  C   7.87418841733064     -1.43734063894760     -1.98487139966173
  C   8.07540754967658     -2.81656295284833     -2.41188043303776
  C   8.44379944417588     -3.14536467258647     -3.73007302523329
  C   9.54704248948192     -2.52965280204114     -4.40218786612359
  F   10.21083265209349     -1.64580949798181     -3.55522937323818
  O   9.96933324606471     -2.61849488788516     -5.51592558594455
  C   5.40186784258019     -2.89302542446314     -3.50877569102656
  C   6.06223623675613     -3.54941314123709     -4.43300210466194
  F   5.40250338329875     -3.86069829503940     -5.57783772146759
  C   7.53473502636322     -3.93673944461449     -4.55599728300782
  O   7.83343182890698     -4.74305809471831     -5.41702041063419
  H   2.63937846309054     -2.58919485956628     -1.94196502466193
  H   3.87739783138016     -2.79922829368671     -0.70759301527907
  H   3.64724382636468     -4.05689194113522     -1.94869018940183
  H   5.67187713736319      0.71789261255616     -1.73562560336977
  H   6.20646520564424     -2.14661350567205     -0.78783557591812
  H   8.09046862193892      0.09720768820718     -0.66575010439969
  H   8.06165809209436     -0.69776537639287     -2.75551143678737
  H   7.51829729110506     -3.56113967785982     -1.85237407427413
