26
Coordinates from ORCA-job 24274optt
  C   3.05932948720295     -0.94723536756492     -0.14343902314146
  C   3.10522731029501      0.28429332721455      0.73418157848074
  O   2.60970188988096      1.39758941598438     -0.00526842668703
  C   2.58151418846853      0.23996760487069      2.21454998376282
  C   3.54029038150864      1.44482982638833      2.47734233395634
  C   4.43600004363746      0.66226177978107      1.48934833790437
  O   5.49041153937517      1.23758304186897      0.78603680621664
  C   4.69096623637213     -0.62062799362063      2.21767751440820
  C   3.43160586101210     -0.86634552584864      2.82408058573968
  O   2.97224948002633     -2.20049160032641      2.90586685973382
  C   3.94369688400715     -3.11860832204026      2.76701226308385
  F   3.47602420566620     -4.33058501850939      3.10653223942224
  C   5.20279024786362     -2.94119048134057      2.35213302775136
  N   6.11975869041627     -3.99533125377525      2.15884390801180
  C   5.62008189555965     -1.58482285541596      1.89811523073237
  O   6.69264254465167     -1.43892878415303      1.22656561495409
  H   3.79695292029523     -0.84192588390488     -0.94460393077538
  H   2.07051139573252     -1.03060591810207     -0.59788463379315
  H   3.28171925684681     -1.86182634967568      0.40209432430227
  H   3.38092526534471      1.80771303148153     -0.41755632864791
  H   1.52059142962748      0.29647254178581      2.44415242146091
  H   3.91770489502774      1.54890120640348      3.49302381727789
  H   3.15831137533893      2.37710945880404      2.07095181081013
  H   6.16224871728345      0.53236003749253      0.71160459563769
  H   6.25023398059912     -4.56757753303196      2.98111395650262
  H   6.99550987796006     -3.56897838476569      1.86752513289508
