28
Coordinates from ORCA-job 24279optt
  C   1.17945201605000      0.45617610993765      0.79917976265924
  C   2.37875283346743      0.15617888013538     -0.07047823284999
  C   2.92362375255514      1.18466075147984     -0.79756178822699
  F   2.66025838246901      2.49370794995189     -0.43081171071463
  S   4.37118943511357      0.98264540287288     -1.75654367382986
  C   5.17223869257670     -0.21462953075616     -0.75017918671964
  F   6.53073555393501     -0.08507610417841     -0.67614221545880
  C   4.50730026888922     -1.11736546890845     -0.02256304231584
  C   5.23057980261164     -2.14894400637536      0.79371198597855
  C   3.03352431532873     -1.12522404102121      0.01867980530968
  N   2.47159033078483     -2.29499571855547      0.29487348889006
  C   1.05847598611171     -2.42879232692628      0.10891462382077
  C   0.68017035545107     -3.86964264167919     -0.12534598584646
  C   1.55483302735631     -4.91035666782437     -0.07847637280202
  S   0.78915074114386     -6.41290440477083     -0.38955095792104
  C   -0.73606614607134     -5.66038576153161     -0.58951655666906
  C   -0.64471540330056     -4.31315940931619     -0.41997573260127
  H   1.15824630032514      1.51771696975675      1.04381470594708
  H   1.23522961434397     -0.11388185426255      1.72744835628428
  H   0.22823748415081      0.20855237744010      0.31805765329698
  H   6.30918238225311     -2.01089965628479      0.74298019709828
  H   4.96959340122041     -3.14368852433922      0.42902729839275
  H   4.90286750016960     -2.10588792587053      1.83424262729706
  H   0.69934481352136     -1.83503324366562     -0.74890932086530
  H   0.45999103146159     -2.08322010883073      0.96917790079593
  H   2.61145156117572     -4.83410496100811      0.11808597584098
  H   -1.61079296511790     -6.24453678856888     -0.82620308666676
  H   -1.49044506797622     -3.64290929690047     -0.50593651812398
