29
Coordinates from ORCA-job 2427optt
  Br  1.23341986653716      0.22484739377148      0.45817828201012
  C   3.63039089575330      0.24271785261337      0.13795176597516
  C   4.23432861074787     -0.99350916566843      0.08187230059304
  C   3.93861510068052     -2.25188836249578      0.84090258480564
  C   4.84517798321766     -3.28989660997432      0.12351047812494
  C   5.91898601925762     -2.50603805115632     -0.65865789939766
  C   7.30067016191025     -2.40280977120219      0.01174724302045
  C   7.33289734873187     -1.66433254120245      1.33409800832627
  O   7.95111854060941     -0.63378645449818      1.45078908705006
  C   6.61085014304484     -2.21313142443339      2.56757233076390
  N   5.36193043360146     -1.52526448411542      2.86070020039928
  C   4.12979486005110     -2.11058927502703      2.35829025082177
  C   5.29598698067160     -1.13282540823335     -0.81282100399355
  N   5.75355017375561     -0.24156604184885     -1.66223528084813
  C   5.12718773405205      0.97449690931527     -1.67754721759541
  O   5.39405049382399      1.90067731622610     -2.42339946168605
  N   4.08841306019063      1.15831934159859     -0.72537270160672
  H   2.88772083340777     -2.52627617477391      0.70650761346256
  H   4.23599405205289     -3.84240580256590     -0.59290226243219
  H   5.27119812599602     -4.02758249006640      0.80655020357114
  H   6.08762705000315     -2.94220853365631     -1.64478397544783
  H   7.97650783439688     -1.87204109811087     -0.65869248207687
  H   7.68440376327759     -3.41545230890117      0.18250251734532
  H   6.41385430020824     -3.28248420626979      2.48009108990316
  H   7.30778297757024     -2.06073400804270      3.39721705712079
  H   5.42862643297001     -0.54709962709457      2.60246964126340
  H   3.31349504707072     -1.48247544678598      2.72255047795208
  H   4.01273910016451     -3.09609194146647      2.82419183672422
  H   3.66168207624485      2.07443041406502     -0.75228068414889
