29
Coordinates from ORCA-job 24280optt
  C   0.53222094504776      0.22604827477468      0.71488595070344
  C   2.05397392663080      0.22814868549218      0.53812252221127
  C   2.67729357717224      1.50962040808776      1.11898045263182
  C   2.19152617912786      1.88560869138489      2.44750336819741
  N   1.77682167606469      2.26432678795979      3.44800130270950
  C   2.67513434116652     -1.01314949841588      1.14613606806819
  N   3.40311051935365     -0.80114369099729      2.28800818938105
  C   3.74885723658236     -1.86017316471750      2.98909895876437
  F   4.49643658588497     -1.60908679212796      4.09756849508365
  C   3.40316914396873     -3.14811670313610      2.72689936272816
  C   3.73149687896676     -4.34553919165933      3.54449211544239
  N   2.60617680972753     -3.34097316072613      1.59575603920517
  C   2.32888489432943     -2.30796677338628      0.69162286137475
  N   1.76744487631502     -2.74203608082823     -0.42387033732625
  C   1.79849907078456     -1.90432742628979     -1.57678726077455
  C   1.51866655546565     -2.70464005799934     -2.78665448035663
  N   1.29916178231429     -3.29149720245291     -3.74768091712749
  H   0.06914098977146      1.08295251066341      0.21560736490506
  H   0.28147008008275      0.26497291832050      1.77676085478302
  H   0.10904478542851     -0.69329739664636      0.30789235871158
  H   2.26304579954493      0.29072276365080     -0.53181130128094
  H   2.44428716051166      2.35093638440510      0.46170132405652
  H   3.75901117303880      1.39750884824759      1.18198152785017
  H   4.35459659898144     -4.06529066879338      4.39074698116390
  H   4.26902939337390     -5.09774276838620      2.95445367752592
  H   2.82271261415800     -4.82608272013138      3.92519610612523
  H   2.57798031943313     -4.25581226191588      1.17012542585411
  H   2.78258692541273     -1.43437504557920     -1.74234726234143
  H   1.06321916135983     -1.08059566879752     -1.60438974826942
