29
Coordinates from ORCA-job 2428optt
  Br  2.25044720179055      0.70819835919987      1.25920841362083
  C   3.66525702201733      0.25300675829052      0.06381896406423
  C   4.25584054425977     -0.99750253601052      0.13600237789992
  C   3.89912335300732     -2.27849019068573      0.82934817957435
  C   4.88718219915437     -3.28630243133597      0.17828813342501
  C   5.95056304181016     -2.44691528403533     -0.54877865732982
  C   7.22482939577384     -2.14227900105115      0.27532626960236
  C   6.97813462451549     -1.35524314159295      1.53799194988968
  O   7.31346551430329     -0.19658469261016      1.64288151940996
  C   6.34436956827585     -2.03237242128263      2.75750796564991
  N   4.99928820025345     -1.56108042709990      3.06080450588184
  C   3.91510920364737     -2.24127098752139      2.37578211548016
  N   5.22326637481426     -1.24046901459838     -0.84947509858285
  C   5.70470009591938     -0.26693062556117     -1.75578169994557
  O   6.64073930233847     -0.60122885635259     -2.48352791313010
  N   5.09151888333351      0.93324115143768     -1.76687671962318
  C   4.10316860040396      1.17161327891795     -0.86965073072992
  H   2.87413787976234     -2.58784679428996      0.57372661095001
  H   4.35250801093280     -3.88083182978491     -0.56327600412920
  H   5.31934249314829     -3.98049125950085      0.90054408725087
  H   6.27975169027150     -2.90950661899464     -1.47778680223265
  H   7.89265083401959     -1.56225654085722     -0.36146041102495
  H   7.69771390130299     -3.09492993100391      0.53822373702456
  H   6.32221811402667     -3.11902838623266      2.65557905280782
  H   6.99875466101130     -1.78671778058980      3.59956290560086
  H   4.95190220375682     -0.56353759354952      2.87228849605144
  H   2.99285032715457     -1.76607395620195      2.71050394317670
  H   3.88765332534718     -3.27804327354580      2.73294816193117
  H   3.65251343364745      2.15787402644312     -0.89372335256345
