27
Coordinates from ORCA-job 24294opt
  C   3.15255891378918      0.78687865479907     -1.18119154447272
  C   2.65711962218682     -0.04810079535838      0.00527269050724
  N   3.04654373743436     -1.46312886534255     -0.12989439679277
  C   3.16620918445079      0.46125760956932      1.31124584231621
  C   3.23694926133668     -0.31476543224299      2.49298277293264
  N   3.59259917015436      0.54281530120065      3.53838906505755
  C   3.96382481828404      0.53091895933304      4.83301911039300
  N   4.15612325508540      1.77749690668801      5.29578752888608
  C   3.91419050898267      2.59583466461071      4.24743994384100
  N   4.05553744701813      3.99674031153952      4.36013044538265
  C   3.58386204068332      1.86042333166006      3.12992772965414
  C   3.09297958045470      1.92834797983206      1.71666051110146
  C   1.67038538328546      2.49747931494763      1.71853601672765
  F   0.81141777304098      1.77583160496862      2.43880656915961
  F   1.62994201146860      3.75818769656760      2.22551001062080
  F   1.14610955812260      2.59940582296278      0.47744384415298
  H   2.76192425837157      0.37859716783533     -2.11903196771887
  H   4.24514701324558      0.75703578412027     -1.21116739220201
  H   2.83518473444731      1.82838523395022     -1.11287147189354
  H   1.54995557004378     -0.04788341683442     -0.03541416534269
  H   4.05673780212083     -1.51428270069384     -0.01690245823966
  H   2.82848796488065     -1.78762260736920     -1.06687375107263
  H   3.37428572290541     -1.37734451123210      2.58900017264193
  H   4.05892037162045     -0.37227577438694      5.41108856546725
  H   4.10709400901749      4.23620660664854      5.34186499535550
  H   3.27035545845005      4.47804951140461      3.94052514629494
  H   3.66155482911874      2.61551164082232      1.07771618724224
