32
Coordinates from ORCA-job 24298opt
  C   0.95471941275410      0.01666547059650     -0.09825512819896
  C   2.44861716831632     -0.04391383434868      0.20914292649926
  C   3.29013038000622     -0.00734302360167     -1.06788047715281
  N   3.07015954404482     -1.21644528182893     -1.86853117795015
  C   2.88523316878690      1.07522999555119      1.12364615499772
  N   3.49398311378177      0.83787276983078      2.20505116152280
  C   3.92652607723110      1.96717405754671      3.02469632130682
  C   3.26754919444835      3.26140675492551      2.64858080091471
  C   3.50734389169107      4.48016538729158      3.33451352235708
  F   3.75176812263744      4.43205585275262      4.70088983562273
  C   3.26111921330902      5.71304612594344      2.79300358789479
  O   3.36345420083733      6.84886784292381      3.56899652228609
  C   2.83602920764208      5.83086840476087      1.46229663346093
  C   2.62758493783882      4.63951511066005      0.70434986299241
  C   2.08312357326894      4.74522707822046     -0.69068742332454
  C   2.85516250287539      3.43156909454802      1.31075405471851
  O   2.59865089377383      2.27267238402606      0.56599203848985
  H   0.67615390534182     -0.79723048128819     -0.76761669954213
  H   0.71087683929627      0.96501918378781     -0.57900827506012
  H   0.36952966844774     -0.05626357833498      0.81943722386742
  H   2.68147014254055     -0.96612654554303      0.74695864966924
  H   4.34116016129585      0.13384973185688     -0.78840627933372
  H   2.99351807262112      0.85778856656867     -1.66469212810227
  H   3.42910858317379     -2.02409534402503     -1.37094402514153
  H   3.58221219466594     -1.16031073519205     -2.74056750891966
  H   5.02609933271533      2.02691744297566      2.92801040657574
  H   3.73634894478075      1.71058884327295      4.06879383970644
  H   3.66054742796550      6.56050786521200      4.43951457400030
  H   2.78439091549707      6.80599582329617      0.99569715159378
  H   2.71815740878774      5.39075752976013     -1.30551599361525
  H   1.08362251420681      5.19670024544236     -0.68505780394915
  H   2.01664928542006      3.77126726241221     -1.17316234818633
