27
Coordinates from ORCA-job 24308optt
  C   1.33288033177885     -0.28694362573960     -0.91412536121805
  C   2.70149255473829     -0.12234076613818     -0.32808182042694
  C   3.31686212545360      1.11439718011299     -0.20793312277978
  F   2.74477236953544      2.17610720110359     -0.86095874317091
  C   4.52656635538630      1.30755667177545      0.45757276108274
  C   4.94048193900611      0.09546269547001      1.11343732032621
  C   4.50319428495856     -1.14104522621422      0.61380194479776
  C   5.71736579193511     -2.10363802698887      0.62980187001802
  N   6.88343047592789     -1.18508935288363      0.81743485216590
  N   7.82499498093532     -0.99198423814517     -0.22138169182505
  C   7.82593474049185      0.30654999499665     -0.46179159213277
  N   8.62355119620502      0.82641015094079     -1.47825731052382
  C   6.91871155218181      1.07016145312433      0.34980159682850
  C   5.81389205546257      2.09879963894509      0.04892719968211
  N   6.03507462101804      3.38032131805736      0.74850172328988
  C   6.34150941195724      0.04660975493967      1.06618806363350
  N   3.39632100636971     -1.29611707304687     -0.05977392611348
  H   0.91732833698050      0.66759756497793     -1.23275610637128
  H   0.65004026748035     -0.73625978751186     -0.18571956203441
  H   1.36964247262103     -0.96132216810967     -1.77375041924884
  H   5.81868377441453     -2.62330458323290     -0.32063263465819
  H   5.67475012628141     -2.83621993156766      1.43767347235394
  H   9.31555556109874      0.16449791569995     -1.79842726776189
  H   9.02396300736837      1.72172932671297     -1.24348818769236
  H   5.78344354738333      2.33002402280071     -1.02168924683301
  H   6.20302503357243      3.16292606518696      1.72705947689860
  H   5.16053207945748      3.89911382473417      0.72756671171359
