30
Coordinates from ORCA-job 24312optt
  C   3.50903955205028      0.57970084147874      1.13717219516129
  C   2.53722936219058     -0.00766324016790      0.10645388267937
  C   2.98640452595246     -1.32232189021838     -0.45129510374629
  C   2.50563634164354     -2.53564726370322      0.08954768502998
  C   2.95243501726073     -3.74719379173732     -0.42567415648428
  N   2.52884825166408     -4.96263658578708      0.13757910785143
  C   2.62532147323700     -6.15700450307353     -0.67555873959831
  N   3.80288107928152     -3.85901526911949     -1.43124169107848
  N   4.26221585802940     -2.65302148532972     -1.96102740042878
  C   5.10041385355164     -2.81941393454060     -3.03016625448802
  O   5.34090691336003     -4.08882144846385     -3.38546125577634
  C   5.63527110930037     -1.75377641473693     -3.67147252648724
  F   6.43904887133977     -1.98567371279476     -4.73865681319057
  C   5.39903512338245     -0.39062729669351     -3.26340787613871
  N   5.93847449680144      0.65097359124890     -3.83222828557116
  C   4.49559764152999     -0.28793071361380     -2.15370870716567
  C   3.91643802409142     -1.37353816685021     -1.51603697884948
  H   3.15350040064500      1.53879794151455      1.52432311363513
  H   4.49238434374080      0.73109240505279      0.68983666257088
  H   3.62610601795004     -0.10918816735540      1.97590873079566
  H   2.38896652627872      0.71781466500027     -0.69953223322935
  H   1.56037196457406     -0.14659232960378      0.58054743130658
  H   1.80927683962190     -2.53377008974774      0.91968051233284
  H   1.62910052331557     -4.85459149094511      0.57916999898944
  H   3.67299185312060     -6.39824853787276     -0.85032830477400
  H   2.14274578293973     -6.05129947725915     -1.65514747682784
  H   2.16647632465296     -6.98534435924905     -0.13571792985352
  H   4.80993255835046     -4.60539925694574     -2.73767569327222
  H   6.54102824752866      0.34011198812978     -4.59091816837699
  H   4.26492112261472      0.70922799338404     -1.80896372501532
