27
Coordinates from ORCA-job 24318optt
  C   3.05419477091186     -0.42537870460040     -1.15563917921770
  C   2.53964463230480     -0.11614640901129      0.24741618741766
  C   3.08717315440738     -1.07942049604920      1.28029781114995
  N   3.77196093224964     -0.52978079080984      2.25296250071469
  S   4.41903513615707     -1.51901612457045      3.43820743311423
  C   3.93391068345932     -3.19928949472561      3.07432034361213
  N   4.27914069813284     -4.13584297781933      3.89158788833795
  C   3.19235468245770     -3.36574331720563      1.86663890612249
  N   2.80203768392222     -2.36546981955389      1.05187818041706
  C   2.77953547909073     -4.76903060968736      1.39283106972696
  C   2.44128033425626     -4.75799581769942     -0.11250051539640
  C   3.83396233555472     -5.77684253913336      1.58070892043525
  C   4.68477917300820     -6.61920075157079      1.60669124778810
  C   1.51011832969144     -5.23853812149668      2.12459296448190
  F   0.47913288704830     -4.41264813643803      1.88786362812263
  F   1.10951984747139     -6.45721143249426      1.69715161027718
  F   1.64740353567519     -5.32291847177903      3.44199463145851
  H   2.63036533611565      0.25832108243664     -1.89503669494399
  H   2.79222255142762     -1.44754631791912     -1.42926811488171
  H   4.14194419782927     -0.33599517955371     -1.19150005687643
  H   1.44814342304742     -0.18792491918424      0.25493535505198
  H   2.81363466470915      0.89551242324865      0.54604994880615
  H   4.81071782654023     -3.75633037948275      4.67396412821464
  H   3.31662962256663     -4.41116018443857     -0.65689137719402
  H   1.62570979853058     -4.06727597587709     -0.30505721203441
  H   2.18397831002449     -5.76533054591071     -0.43635475725315
  H   5.46246997340982     -7.33779598867442      1.69015515254832
