26
Coordinates from ORCA-job 24314optt
  C   1.37433023344431     -0.31596397396899      0.08038867770255
  C   2.75419268111750      0.25182311239500      0.41536745436850
  C   2.80288474309720      1.76330902510483      0.22684862818267
  C   3.15918230111453     -0.10570554779677      1.80816684611212
  N   3.70186162330013      0.65478917790524      2.69519822428161
  C   3.90480257062490     -0.15164692493357      3.80160493334994
  N   4.55621246840822      0.32019744535218      4.93259784691658
  C   4.26998128049923      1.61855212408840      5.32207913074353
  O   4.69915444216084      2.11159890870993      6.35786109654010
  C   5.41851840717652     -0.52435530938177      5.65556581823762
  O   5.79080259475155     -1.62809432448986      5.19597867747482
  C   3.44647861730969     -1.40372182507983      3.50855416685794
  O   2.97167748855728     -1.37548133887420      2.21200989695255
  C   3.20399279273651     -2.66559986167432      4.23997755428612
  F   3.18735422899847     -2.49553417076283      5.55649759247715
  F   1.97947382358690     -3.15617161246050      3.89407219160245
  F   4.05829969626866     -3.65880146541984      3.95793183647034
  H   1.11245520234084     -0.07909622581093     -0.95247546152974
  H   0.61803899087200      0.12030995831653      0.73599813820329
  H   1.35114899760237     -1.39718814558893      0.20889817517959
  H   3.48250813222867     -0.21055142516208     -0.26199034328317
  H   2.08496007325265      2.24704028258692      0.89131470304656
  H   2.55379278265181      2.02049589775313     -0.80400462040889
  H   3.78856152243570      2.15731976992118      0.46788297249257
  H   3.59658343468637      2.13088973567543      4.62820040810555
  H   5.66275087077704     -0.11541328640434      6.63347545563758
