33
Coordinates from ORCA-job 24326opt
  C   0.15987860747267     -1.25183142059941     -0.94873216942912
  C   1.36012674171655     -0.57440719151840     -0.28655026291950
  C   1.99475645760527     -1.48336273882140      0.76814823465986
  C   2.95814074713611     -0.79664232969598      1.76393157730314
  C   4.39350129050936     -0.76218128701308      1.24961097543883
  O   2.51670376581741      0.50757077572137      2.11559590246632
  C   2.94138429042351     -1.57075793474611      3.08686085937800
  N   1.62812667100014     -1.48975012795245      3.72349679006491
  N   2.31220172554175     -0.03626275031891     -1.27690133670156
  C   2.89725049108268      1.25758215032472     -1.04084678344909
  N   2.27120382989898      2.19532436856063     -0.35179512027595
  C   4.20655903117864      1.44615540166224     -1.51768146789786
  N   4.98180989708296      0.51619375110448     -2.13273555456922
  C   4.37903936671374     -0.63802375722783     -2.35773601112704
  F   5.06022389981149     -1.55050802490876     -3.09048641608178
  C   3.13032857866928     -0.94839598469822     -1.94945410499067
  F   2.52353271034618     -2.10060511268486     -2.32494256504327
  H   -0.63032203480139     -1.38969983399052     -0.20763614554545
  H   0.41734450348087     -2.22522950444424     -1.36258636325313
  H   -0.22212818124856     -0.62449579408307     -1.75487287130949
  H   0.97309801101166      0.29010214107394      0.24311209079995
  H   2.51644160746280     -2.30920219758332      0.27425359118999
  H   1.17361777014360     -1.91242997198757      1.34720902091247
  H   4.48484309584149     -0.18212713939116      0.33340603480259
  H   4.75055000558884     -1.77422727745487      1.04414160680512
  H   5.03743550157687     -0.30600514900325      2.00418870573329
  H   2.59250645445207      1.12896138129548      1.35900950721927
  H   3.74273726108297     -1.15769438328587      3.71261636295710
  H   3.17699682674922     -2.61922764945500      2.88272580524246
  H   1.36925278574921     -0.50897828328389      3.76791908146755
  H   1.67088729830880     -1.83870443763430      4.67231400832305
  H   1.27743313518772      2.00287195353038     -0.28377950255244
  H   4.63253785740687      2.42698835850929     -1.35780347961840
