31
Coordinates from ORCA-job 24324optt
  C   0.82616575555714      0.04142061360343      0.00792184673784
  C   2.32183411200585      0.02846692694633      0.03701839391079
  C   3.22034068216774      1.12093885937736     -0.03250372578322
  C   4.58107990877812      0.63324000303816     -0.01939009802370
  C   4.49827059066019     -0.77088099604963      0.03904704269772
  N   5.51681931435171     -1.77663288766902      0.14928896503207
  C   3.13325879898749     -1.10377690344893      0.08836002132240
  O   2.69502894066860     -2.40307013170726      0.16620884227338
  C   5.67205249519276      1.52188612496698      0.04439760379994
  C   7.08583770190018      1.09822454210451     -0.06625492490298
  O   7.62904130174086      0.53308946303540      1.15261433909493
  N   5.39756837676454      2.89966168434369     -0.13827087724699
  C   4.09227849723566      3.39533681443999     -0.03693845960536
  C   3.95343862311166      4.87516251093298     -0.07469950825375
  N   4.71541324770530      5.49255379205650      1.03110165596894
  C   3.05703088220591      2.52005509399249     -0.01217341035337
  F   1.79144477745884      3.02527773146092      0.01305546172882
  H   0.40124757377445      0.66709198538517      0.79796041360974
  H   0.44710571118702     -0.97343320895733      0.14207735516771
  H   0.43173573902296      0.42147898153636     -0.94088035586627
  H   6.00529118915578     -1.91308623293301     -0.72823103067515
  H   6.22619566145230     -1.50127159660097      0.82416022881849
  H   3.50814253570212     -2.91864068620579      0.27046029642679
  H   7.70413970783483      1.95471445472739     -0.35816343857867
  H   7.21898175404068      0.31532458211792     -0.82197578449870
  H   7.00726141005664      0.80118846365188      1.84109938089441
  H   6.08048984646692      3.53375960209271      0.25133776018684
  H   2.89079611704400      5.12791118297655     -0.06245521616255
  H   4.38476105881409      5.26728843620427     -1.00480995093867
  H   4.33880952846514      5.15803992889077      1.91226444160998
  H   4.60813816049037      6.50068086569014      1.01637273160857
