28
Coordinates from ORCA-job 24338optt
  C   2.92715016385972      0.44443900899364     -2.64890493217154
  C   3.44393556287146      0.23585569477201     -1.25298884986380
  C   3.21315724973624      1.16094353705884     -0.26814435155443
  N   3.66512215353091      1.02300668413540      1.02905839952815
  C   4.33435118181615     -0.10617225850966      1.19244605197656
  F   4.80685458074939     -0.29894631822807      2.46334699667934
  C   4.59307114649705     -1.06637021512774      0.25128645131928
  C   5.33557003567594     -2.33545375473799      0.53866483034331
  C   4.43426710547659     -3.56334617625463      0.38969376108136
  C   5.21228161087351     -4.86465920411846      0.46750956073235
  N   4.31988816314971     -6.01673099102134      0.33222552323663
  C   4.71921354048432     -7.04645381395121     -0.23373012387645
  N   4.00786719384832     -8.21726158549449     -0.47734992811735
  N   4.73385052977881     -9.05723215946881     -1.22447015590737
  N   5.86590197788166     -8.59762153384479     -1.39500320781988
  O   5.95217043870965     -7.34646994771134     -0.77218821156401
  N   4.13954528874392     -0.91119985806213     -1.04835343308361
  H   2.36992535311623      1.37880945177556     -2.73450582410223
  H   2.27582819636169     -0.38514577834788     -2.93787519715283
  H   3.75695440387183      0.46031818977421     -3.36105462965113
  H   2.64820010749198      2.06099782225391     -0.48890564201104
  H   5.76998160676392     -2.30579619541769      1.54004409051371
  H   6.15867795341154     -2.42698604445693     -0.18315145676625
  H   3.92255151490321     -3.49738111161869     -0.57280199363589
  H   3.66656922872164     -3.55555271429370      1.16724729076390
  H   5.71656363465887     -4.93856680011898      1.43714753854712
  H   5.99036024807632     -4.88032385880548     -0.30312629314617
  H   3.01018982893919     -8.31970006917338     -0.42111626429772
