32
Coordinates from ORCA-job 24345optt
  C   1.37462753519679     -0.78408255861619     -0.16443593913768
  C   2.87517316321981     -0.52683656520728     -0.21008038343481
  C   3.25411127707938      0.44904656122556     -1.32576032486934
  C   4.72607021592558      0.66827956576193     -1.40997569274790
  C   5.36608627979875      1.82958145786718     -1.25125916569900
  F   4.64896202963040      2.95028206129981     -0.97510702616900
  C   6.80635599692841      1.98681722092466     -1.38461546033045
  N   7.45607812879721      3.14144483159373     -1.35343715193848
  C   7.47982025039452      0.75640372426114     -1.55205220710776
  N   8.88991776465432      0.82649707993326     -1.59767301673514
  C   6.80029172624472     -0.46872111355984     -1.60902124272256
  O   5.40575542769439     -0.46791958307128     -1.68842770572463
  C   7.34163448181931     -1.77421819429405     -1.60292679210175
  N   6.65354461920996     -2.88622460789833     -1.67902570366775
  C   7.62449894269021     -3.96938773003114     -1.67103858053231
  C   8.90197491477692     -3.35613138360248     -1.08694193046640
  N   8.75505986532549     -1.97088317837693     -1.51930434286948
  H   1.11057193926033     -1.48223547187137      0.63156890234113
  H   1.02569322790015     -1.20704033899249     -1.10938150576250
  H   0.82273759674143      0.14374662904316      0.00549291281200
  H   3.41944669876056     -1.45974353425086     -0.36681099668553
  H   3.21580989623322     -0.11892342286671      0.74505435895710
  H   2.75840707376663      1.40955966808345     -1.17841974701489
  H   2.90955564560681      0.03887818985545     -2.28251756051217
  H   6.79448409087797      3.90009171741897     -1.22135157369328
  H   9.13713774546754      1.81074471964545     -1.66270292874557
  H   9.27266840185785      0.30176610635875     -2.37512147891963
  H   7.81316032089736     -4.32847610939665     -2.69511619393340
  H   7.26908443383261     -4.82411720485829     -1.08946432898253
  H   9.82035040355879     -3.80320820080102     -1.47220324191993
  H   8.89786525769136     -3.44163020938572      0.00851345497043
  H   9.21606464816100     -1.27836012619184     -0.94345740665677
