32
Coordinates from ORCA-job 24340opt
  C   1.06386591229245      0.14337339998788     -0.44056345563945
  C   2.51689550898201      0.05853802422247     -0.05720366373808
  C   3.33234559440268      1.16534823749884     -0.12591325459615
  N   2.78067715801785      2.42846891067867     -0.47278135509330
  C   4.73680899792152      1.09999960219572      0.14165721590687
  C   5.25199691013000     -0.18237990666040      0.58369466558496
  C   4.41157947511021     -1.26346176272028      0.63014900973463
  F   4.92720752476751     -2.47636020452108      0.99750747092253
  C   3.06322438611074     -1.21102820321080      0.32065986366517
  C   5.47994610787592      2.33790318525628      0.56510837174343
  N   5.64143689553367      2.52960321961560      2.03226480173346
  C   6.90143919189098      2.39126329877236     -0.02489216448961
  O   6.95192398867535      1.93510736241936     -1.35044486104021
  C   7.49551104456353      3.80578710674472      0.00435824045525
  N   8.87110072644370      3.88529385997667     -0.48987070557074
  C   6.66326369079025      4.71552167984288     -0.80679215948993
  N   6.00592082213919      5.41386267192915     -1.43508379673785
  H   0.51149163923748      0.87202547115295      0.16160204044000
  H   0.58042866807613     -0.82482028930551     -0.30631558537968
  H   0.92805323380577      0.42579741388346     -1.49375101143960
  H   1.88878252781061      2.33837314140609     -0.93804750019827
  H   3.40722166601765      2.95548399177987     -1.07306317158644
  H   6.30637792294404     -0.32560494083647      0.79350536035473
  H   2.44307743241485     -2.09120501618880      0.41787849048306
  H   4.94004518054375      3.21657218056676      0.20921812376361
  H   5.86471208033052      1.61749493135693      2.42559332126072
  H   4.72569214382249      2.75348587580664      2.40918264062995
  H   7.55814278262230      1.77553646350915      0.60986036370476
  H   6.11867759595053      1.43181829189411     -1.47099012547975
  H   7.45767586137929      4.16534269006607      1.03406497008521
  H   8.89680568043694      3.41297098899619     -1.38997848133446
  H   9.45867164895981      3.34188832388444      0.13338634134520
