27
Coordinates from ORCA-job 24351optt
  C   1.71574922894196      0.34492488853801      0.90878244012035
  C   2.86328906702891      0.39809196269570     -0.08244603662320
  O   2.37939794853316      0.89352426557608     -1.33577060771083
  C   2.74136734684515     -0.09609189117612     -2.36082149309350
  C   2.50881452038534     -1.38072213352257     -1.56674630020975
  O   1.85664647801845     -2.35551833920427     -1.80536654300299
  C   3.47709433148304     -1.00198258677807     -0.42436815753477
  C   4.71384784579878     -0.74115283849800     -1.27953311812626
  C   4.20054581380012     -0.25232814055898     -2.52812990651272
  C   4.98197502784980      0.39962886240914     -3.55581502830473
  F   4.37459871171162      0.42579912569423     -4.77252589330429
  F   5.29921093359107      1.72941640289397     -3.33703850181753
  F   6.19143853860877     -0.18308068897331     -3.74375931607319
  C   3.68024523203581     -1.88307012399434      0.76088116610027
  C   4.88832055302198     -1.65055085259544      1.62686279450974
  N   2.80670237076951     -2.76720519178500      1.02155275174514
  O   3.13947477363095     -3.48824384490511      2.18441860227978
  H   1.22497332289508      1.31848561772346      0.94884023431081
  H   2.07099903848726      0.08472883273671      1.90841672216759
  H   0.98537211133161     -0.40552282840989      0.59871762298382
  H   3.66476400540546      1.05363637956091      0.27477715906283
  H   2.12372879207944      0.07638193248905     -3.23527964719188
  H   5.58494200878342     -1.38299841358524     -1.18454931952891
  H   5.46019197102401     -0.80458625166311      1.25197760182589
  H   5.51831726696176     -2.54172096288491      1.63678669161094
  H   4.57641458977402     -1.47193430292032      2.65741649443087
  H   2.42657817120335     -4.12990887886252      2.22771958788654
