30
Coordinates from ORCA-job 24361opt
  C   0.91723429018126      0.13199621960672     -0.11859834377579
  C   2.42521728322438     -0.06358049523749     -0.10632144283254
  C   2.78431929269010     -1.48196214112543      0.36045338355562
  N   2.64367165970214     -1.68208373944118      1.78894294101750
  C   3.54939201345922     -1.13436777182514      2.67194093201253
  N   4.62344241498937     -0.51356560716683      2.40744954954484
  C   3.17852600414630     -1.35998220099835      4.06518904960494
  C   2.84268842902814     -1.54757366195769      5.20024755379143
  N   2.96147551422334      0.14980023854060     -1.43411565948530
  C   4.28800236172802      0.62069241863026     -1.57181573331614
  N   4.52600455498665      1.29400926347148     -2.66821386987946
  C   5.83768344408985      1.71247681166457     -2.85784952721578
  C   6.75863280966520      1.45896207746984     -1.83809275958491
  F   8.04574910876886      1.91264633826454     -1.96109360482318
  C   6.40755381796967      0.77348359626907     -0.71619933391699
  N   7.31079421186377      0.44905022891296      0.31575353466053
  N   5.11670431458924      0.29679344694625     -0.56208384492798
  H   0.48922103486933     -0.10696843327459      0.85703891415515
  H   0.46080093056492     -0.52200636872730     -0.86742342462580
  H   0.65725564360534      1.16496537183692     -0.35676776812209
  H   2.87459427258579      0.63785402913587      0.60712993869182
  H   3.81824227674100     -1.67864857039950      0.07780016300246
  H   2.14872821485407     -2.20574066174477     -0.15532281170922
  H   1.74918261088132     -1.94454456309551      2.16525462752787
  H   4.76102706245754     -0.36568333248340      1.39518033446671
  H   2.56897289004339     -1.70540968263122      6.21510538272210
  H   2.36063427468915      0.66651071569682     -2.05935877756946
  H   6.09396794515751      2.27000346331357     -3.74579416282467
  H   8.10391116918377      1.07559096558460      0.32902363180263
  H   6.84437014906112      0.44828204476434      1.21654112805316
