30
Coordinates from ORCA-job 24369opt
  C   1.16545791582206     -0.67298265010234     -1.08587891621337
  C   2.53551246269606     -0.43158952408063     -0.43846342093626
  N   3.49803926137921     -1.40535536405794     -0.89499718222527
  C   4.67254336358022     -0.79159228664018     -1.20648657638516
  C   4.99778829560218     -0.88432045423987     -2.69050584547900
  C   3.87008437326388      0.03914222621507     -3.24367540381782
  C   3.76881509378195      1.10955098019370     -2.15485961150668
  N   4.59773339272522      0.70636676161622     -0.99569195914683
  C   3.18384711116957      0.92624209854626     -0.77413902416085
  C   2.81188926583732      2.17918873978893      0.03995600654198
  C   3.40201829159640      3.46627761496089     -0.55241501182402
  N   1.35527503063569      2.25077088613818      0.16655497327697
  C   3.35709533762467      2.10620865485202      1.47836600502648
  F   3.01198288863708      1.02154494177389      2.16688835887319
  F   4.68596499434540      2.20229197573383      1.52739618150451
  F   2.88189424165750      3.16243248035693      2.19668528003487
  H   0.94340938762822     -1.73896629784525     -1.01940327479337
  H   1.17564098657869     -0.39581475782894     -2.14279997308143
  H   0.36744999730499     -0.12411283852145     -0.57808917999487
  H   2.37194279211504     -0.47907684972569      0.64708496731065
  H   4.92416070077313     -1.90783880741549     -3.05452335447918
  H   5.98095233571757     -0.47149569715528     -2.93379025706700
  H   2.96123425795100     -0.54840466527846     -3.36272445125296
  H   4.10597880922064      0.51330087349549     -4.20154367021591
  H   3.92187051851334      2.12454979611188     -2.50217462584067
  H   2.90179769085619      3.68087546557646     -1.49549208037800
  H   4.47247818132912      3.35704490055499     -0.72531461224599
  H   3.23115799504899      4.30317727691815      0.12716705035550
  H   0.93683333032597      1.97466234763943     -0.71388929588201
  H   1.06215169628265      3.19792217241921      0.37675890400253
