30
Coordinates from ORCA-job 24365optt
  C   2.29411628009289      0.14772933523697     -1.46554946199639
  C   3.04854708303662      0.51780562859931     -0.20701735575680
  C   3.25659777496227     -0.69572598178341      0.72459132052280
  C   4.73619655268306     -0.97782715200178      0.67536406065623
  N   5.27066055310936     -2.09135659323663      1.17181408691034
  C   6.63588500048559     -2.17758007003486      0.99934750593330
  C   7.39757492118347     -1.26794680169051      0.30426374603465
  N   8.79722222144099     -1.43085015616457      0.13945703546514
  C   6.76743341365677     -0.17717534611742     -0.33874268714562
  F   7.57178680667614      0.93344890964325     -0.60678680198002
  C   5.40010619474523      0.02693843475098     -0.00683250121316
  C   4.47725213435922      1.08696460370377     -0.49568087799620
  C   4.46521372216248      2.45558587009398      0.26864128699759
  C   3.26232076273454      2.28117442639310      1.20682848595532
  O   2.32161018011770      1.57278872094854      0.43947369501295
  C   5.67568750230443      2.81999949118727      0.98558113797283
  C   6.64945820004039      3.12956059105766      1.61325829987359
  H   2.83478953871688     -0.64264757807690     -1.98953820797129
  H   2.20132254431809      1.01370129525499     -2.12323204561891
  H   1.29627597965676     -0.21764408107342     -1.21450080195182
  H   2.68113997221532     -1.56496001717731      0.39081634143926
  H   2.91873718330255     -0.46034811888266      1.73831869960576
  H   7.11465170818433     -3.07188574942346      1.39081852230601
  H   9.21474619763831     -1.84105295396090      0.96337620213712
  H   9.23283867387116     -0.53840946209736     -0.05291651631237
  H   4.62055392459628      1.29386493649483     -1.56338774739281
  H   4.22365403031697      3.25037545310375     -0.44303601419432
  H   2.82003964355426      3.22378362629863      1.52804896791453
  H   3.57187862326019      1.70688108434903      2.08882372834322
  H   7.53470267657763      3.36180765460512      2.15239789644905
