23
Coordinates from ORCA-job 24363optt
  C   0.91363283192971     -0.37330367683962      0.44057886924987
  C   1.92758617838085     -1.22289921362365     -0.28374838480763
  C   3.24495826650959     -0.88289758979871     -0.18351406272866
  C   4.44754183922679     -1.41000128267390     -0.88073894453764
  C   5.00132297743269     -0.72315976892337     -1.87514726502068
  F   4.42097689378545      0.28217082267367     -2.51969425186479
  O   6.28076507275963     -0.86787395742544     -2.27470346690110
  N   7.17469108697246     -1.14378566755748     -1.21216848358522
  C   6.65763886783335     -1.94216967010265     -0.37201611143353
  F   7.43000330100716     -2.29078218507586      0.63803227037169
  N   5.36522357848956     -2.43306713401304     -0.36740410073998
  C   5.35831114340049     -3.88313974437349     -0.80043669179885
  O   6.44986147109648     -4.41582430296096     -0.83934325202396
  N   4.16616861699334     -4.35509775036227     -1.14509978659672
  C   3.13110029741776     -3.67258380425880     -0.65528592944052
  C   1.99874482867693     -3.28184384315047     -1.36923134545119
  N   1.32990407275022     -2.18180989749089     -1.07055313049527
  H   0.22228744404583      0.05371614345599     -0.28820772701479
  H   1.38062361777786      0.42889665209111      1.00994691327911
  H   0.32161660618837     -0.99531645577715      1.11504634570534
  H   3.44242257485020      0.01887488528861      0.38758073877060
  H   3.22172259117828     -3.23558975062569      0.33713342111660
  H   1.67889584129693     -3.85251280847592     -2.23902562405268
