27
Coordinates from ORCA-job 24371optt
  C   1.01946809493832     -0.01722137055836     -0.07201764646074
  C   2.51706304678547     -0.02366763147470     -0.02899748749577
  C   3.22066068485936      1.23953595758578     -0.00381572957792
  N   2.42238284402603      2.31952884116396      0.06336617275615
  C   2.86787411774133      3.55144929343116     -0.15060955545297
  C   4.04357239210848      3.80024402741877     -1.04775237960259
  N   5.31688617136845      3.50622048574683     -0.42731429564621
  C   5.61732774916199      2.31932618671780      0.17581077815209
  O   6.70445755640987      2.19928098189113      0.73700549784498
  C   4.66383855635754      1.18362924593095      0.05835550214877
  C   5.30064175685092     -0.06321140004224      0.10621240097311
  C   4.62236077260086     -1.25708340116457      0.05454117189459
  C   3.22723492544571     -1.18700144080868     -0.00807656894011
  F   2.56216834175395     -2.37513592790289     -0.04353249797804
  N   1.87319046925290      4.56105873368011     -0.05737832125057
  C   2.06960177069620      5.85630212424315      0.23594396398454
  O   1.19896415969280      6.71108265194987      0.30259998909387
  H   0.62068202625443      0.51007862259356      0.79659598466074
  H   0.62150740130438     -1.02948064878572     -0.09966644076103
  H   0.66903575784516      0.53583684294980     -0.94630554187342
  H   4.06541465441979      4.83350200855278     -1.39051478113063
  H   3.94093220543601      3.15889145025317     -1.93619578300729
  H   5.92704962730325      4.26237974775565     -0.16372501043439
  H   6.37919915030942     -0.05489086146343      0.19293026267470
  H   5.11955811742156     -2.21622208243047      0.07274092518161
  H   0.91203588003928      4.24010113976244     -0.09347720987172
  H   3.13289176961639      6.09146642300403      0.41227660011823
