31
Coordinates from ORCA-job 24372opt
  C   3.19795322906754      0.34773077980643      1.29179023584297
  C   2.42939801050594      0.04325718607891     -0.00081550683594
  C   2.93856875268804      0.93479881120314     -1.15623608342657
  N   4.36051876494819      0.73149087660202     -1.38792447586620
  C   2.53992802787934     -1.45135203048019     -0.38547869272306
  C   2.31478560789738     -2.38045464392874      0.78303034808542
  N   3.33733918946059     -2.78355617002641      1.44617437875291
  C   3.14332948062224     -3.59081598797445      2.62766991884900
  O   4.13804568580596     -3.93251908213058      3.28880025453605
  C   1.80507508479591     -3.89239726782979      2.92576781823213
  F   1.54580450809750     -4.64246136421160      4.03274840963496
  C   0.68109635894816     -3.39050043117771      2.24747733493770
  C   -0.62935742127830     -4.08945265701241      2.18182900000430
  N   -1.70405109203737     -3.11847234920081      1.90098600233108
  N   1.02451095525529     -2.67797141183126      1.06904691813087
  C   1.01529944350451      0.41222293970718      0.18290067522800
  N   -0.08041281814989      0.73837527485920      0.28377507930497
  H   4.20604919163195     -0.05984505556141      1.21703322227778
  H   2.72839399992658     -0.14142393034917      2.14284070285518
  H   3.23072437619610      1.42538839189124      1.46915742979111
  H   2.67677242172058      1.97353859718850     -0.91611456513724
  H   2.39981678091100      0.66415660621377     -2.06686378469225
  H   4.90929289067397      1.08370702271388     -0.61320920748376
  H   4.66087725860611      1.21714214790653     -2.22248207565101
  H   3.55403754153826     -1.61331870757482     -0.74363737820763
  H   1.83515508050509     -1.65967347239818     -1.19557903761866
  H   -0.76699533935727     -4.64926658893981      3.11010950539159
  H   -0.65408564719551     -4.81330614731814      1.34394761807017
  H   -1.71872230431814     -2.43000809450455      2.64820115987591
  H   -2.60680603410732     -3.58021720741802      1.87605597775484
  H   0.27065801525747     -2.20679603430266      0.59099881775537
