28
Coordinates from ORCA-job 24377optt
  C   1.00127368520571      0.13754561093892     -0.07707381633191
  C   2.52818190216531      0.07054957179573     -0.06113265278868
  C   3.07889322017419      1.41858510815566     -0.53796488334465
  N   2.96653274741566     -0.06992767952006      1.34954161268363
  C   2.87062732884461     -1.24602015885462      2.04039047531333
  N   2.32861332550242     -2.35339180945715      1.74232336810087
  C   3.48609374501124     -1.14172094231364      3.37205350892813
  N   3.97829528264904     -1.02542998188149      4.40094015294083
  C   3.04917808752609     -1.06158801124618     -0.92881011594804
  N   2.13746222686949     -1.81818312827650     -1.60757705408617
  C   2.56557255376116     -2.76321915139575     -2.47627941523715
  N   1.82376587822521     -3.47469603103740     -3.26383034222999
  N   3.95435978875918     -3.03699922147360     -2.56316596847955
  C   4.89106962040138     -2.25977214306885     -1.89076197085862
  O   6.18115893810601     -2.72253301414393     -1.90825702515176
  C   4.41835795690182     -1.30800654604023     -1.03321385354206
  F   5.30432145399651     -0.64350572476527     -0.23997152829629
  H   0.68213206505530      0.99412889371167      0.51993041246129
  H   0.55272322415437     -0.76754781911925      0.32772880333340
  H   0.64966011933376      0.23925025873515     -1.10158027926989
  H   2.72710534016400      2.22764575911944      0.10976412620590
  H   2.72504315036384      1.60294910558371     -1.55157630626003
  H   4.16900873803112      1.41410664324001     -0.54909321059744
  H   3.73090113213668      0.52593509469941      1.63126504421647
  H   1.97946365707820     -2.35994310978358      0.78193221332769
  H   0.86269981747105     -3.18075624810609     -3.11577515641886
  H   4.22641088908488     -3.44207685624430     -3.44720440996797
  H   6.18209412561168     -3.62237846925177     -1.54560172870244
