26
Coordinates from ORCA-job 24385optt
  C   5.28378567284619      1.58311312316260      0.04332706899297
  C   4.02384916930926      1.82620180166798     -0.78688577630335
  C   3.58793100606505      0.58028041871790     -1.49477310582875
  N   2.45230469740055     -0.00595726811955     -1.22574788612658
  S   2.34412052206384     -1.36650335259600     -2.15795413246520
  C   3.85893075943258     -1.06830627709186     -2.89455777236837
  N   4.41108908380230      0.01693422332565     -2.43308802032708
  C   4.43267011872008     -1.93972011724338     -3.99712999963431
  N   5.89132555774532     -1.86534502495953     -4.05117558636266
  C   3.95624235482193     -3.34941703207483     -3.86787500499568
  C   3.05586765538877     -3.96421401230255     -4.66812383296650
  N   2.65784075676701     -5.24881568946374     -4.50342384258952
  C   3.25112129223427     -5.86152592857707     -3.48576473097494
  F   2.90503810252943     -7.15592790933746     -3.29624237977013
  C   4.21114950482934     -5.36043333351150     -2.58592277678703
  O   4.77793558751847     -5.91765848265625     -1.65949256912089
  O   4.55606834213673     -4.00335743642388     -2.81466179294367
  H   5.61106777383695      2.50139886385404      0.53278362082574
  H   6.09068077029070      1.22179237983272     -0.59375870239169
  H   5.09862513339402      0.83117986547296      0.81127329441164
  H   4.22268952635112      2.59747610439648     -1.53504683739132
  H   3.20174829954291      2.16685239408174     -0.15869458491060
  H   4.01942523076526     -1.54701724105929     -4.93275192009174
  H   6.25742070935845     -2.55673114816731     -3.40343890727119
  H   6.19188288728253     -0.95575164899220     -3.71720756621032
  H   2.62418948556686     -3.40654727193561     -5.49266625639876
