24
Coordinates from ORCA-job 24388optt
  C   1.19343621242740      0.41710686720298      0.89753672554351
  C   2.24357280142496      0.26238879937527     -0.19277693652557
  C   3.71189444779140      0.27925607498735      0.30360335548212
  O   3.91675481601553      0.83343152639197      1.56938850194913
  C   3.77696984057745     -1.27580797612870      0.19700110639650
  N   4.91784461728193     -1.94923352270779     -0.32155811207326
  C   5.98256550027171     -1.80225301590325      0.39423864384256
  N   6.04477898299181     -1.07020898837003      1.54174658687745
  C   7.16150777739416     -1.09093747547610      2.28461570054582
  F   7.39813012349564      0.06207679147931      3.00698639113095
  N   8.37741064603489     -1.46166748400906      1.62345401148927
  C   8.20633431988308     -2.23163628570027      0.52361331417857
  F   9.36335114699988     -2.78488667093999      0.12204827711654
  N   7.15029187133083     -2.46053499882212     -0.10992189371073
  C   2.49859933016180     -1.18726138004378     -0.62580979533435
  O   1.92531461735297     -1.90992616543583     -1.38969213994496
  H   1.19718199451843      1.43670805809811      1.28367679003928
  H   1.40170947015844     -0.24720348146992      1.73623526099344
  H   0.20163138562253      0.18726268125051      0.50483635664856
  H   2.02926141906713      0.92344478367719     -1.03425979925191
  H   4.37590632720339      0.72083277211468     -0.44820246023565
  H   4.71241508996687      0.36824143655273      1.89777425061351
  H   3.47910133846742     -1.64323738935339      1.19643304049011
  H   9.19503592356001     -1.63395495676982      2.18603282373908
