25
Coordinates from ORCA-job 24393optt
  C   0.96097084049332     -1.41375878774193      0.90318312552123
  C   2.44288560969259     -1.66054895643743      1.06836836859137
  O   3.06617445567428     -0.38974154206615      1.18473257964581
  C   4.41450016189320     -0.39017379340819      1.28600323471473
  C   5.04838393206540      0.84900387242535      1.28554308918372
  F   4.32545236437000      1.97575996131900      1.11778870349519
  C   6.43588583170177      0.98256919594885      1.44850950457990
  O   7.06595867104518      2.03191417211881      1.44347695445071
  N   7.11080317669572     -0.28135938328522      1.68623167319859
  C   8.37349594629521     -0.33812200375492      2.24417729254405
  O   8.83266887854116     -1.39972983893343      2.63409548121983
  C   9.24877256476103      0.90708092800815      2.37000711387949
  O   10.49182574734919      0.52714822876155      2.90541475565577
  C   6.40108231860774     -1.49167198910978      1.45041452490449
  N   5.06286384945623     -1.52655235420674      1.33617706033725
  C   7.08910330372204     -2.69593241305144      1.18925259378944
  N   7.55217967756520     -3.72316620745000      0.92884399144820
  H   0.43233150455059     -2.36312757292707      0.80788281701297
  H   0.77063587941522     -0.81625796114318      0.01150858988969
  H   0.56317912738882     -0.87787077795788      1.76526606920767
  H   2.86269042983593     -2.19461487328301      0.21346568420684
  H   2.65980561538729     -2.25722665878629      1.95695537234498
  H   8.75805500427052      1.64272054321094      3.00782581116975
  H   9.37078205115752      1.36951212063497      1.39062815198159
  H   10.42351305806460     -0.42985390888495      3.05224745702671
