33
Coordinates from ORCA-job 24392optt
  C   0.89927924538668     -0.04263565027139     -0.13537150210275
  C   2.42392728928413      0.14108839293560     -0.09440813718790
  C   2.85361744871442      1.39579960802124     -0.79646568203757
  C   3.84137641012470      1.42028638190289     -1.77487725151829
  C   4.19897262943944      2.57579756708485     -2.44728691083970
  F   5.17705713734776      2.52242464786681     -3.39078760249429
  C   3.58136378213517      3.79757531125112     -2.09006327434671
  N   3.76613982409873      5.11145874001186     -2.44941228632297
  C   2.86130193133734      5.73551292985542     -1.70347727867284
  N   2.68132868939472      7.13111016969142     -1.77069262593756
  N   2.09017335501751      4.98397469514573     -0.88499220772530
  C   2.56038748726450      3.75061222279560     -1.14017535539857
  N   2.08344981602455      2.56291172152736     -0.59004087470807
  C   3.02191133428312     -0.01411740649071      1.34746477720285
  C   2.62988844328161      1.14365226669156      2.26156334021546
  C   2.57299589184784     -1.33444579362787      1.97092395777263
  N   4.48960589861194     -0.03658361507663      1.30359676046335
  H   0.53899792705250      0.12953765218941     -1.14959986048137
  H   0.38275483902554      0.66710745607182      0.51404660958416
  H   0.60812418043110     -1.04822524135964      0.17074877902175
  H   2.86649582301088     -0.68951301707040     -0.65798921482871
  H   4.35208942261556      0.49545448460885     -2.01789953549734
  H   3.54036582357631      7.57680551596750     -2.06202832811741
  H   2.37530135539334      7.49125681242567     -0.87751071795504
  H   1.58988412119392      2.66456451613933      0.28359171708549
  H   1.54563236401860      1.24989200101805      2.33554341495493
  H   3.05125098011984      2.08018266970971      1.89124798964596
  H   3.02709327156897      0.96651956367321      3.26247627252850
  H   1.50910759842128     -1.32332285177386      2.20904663670479
  H   3.13340951160815     -1.51072202499844      2.89027432107490
  H   2.75968346302540     -2.16868964373213      1.28730809456970
  H   4.79979494015855      0.78451247892186      0.78642692183019
  H   4.79323776518580     -0.83378256110587      0.74981905351773
