27
Coordinates from ORCA-job 24402optt
  C   0.83630929098605      0.08708939016655     -0.33950086123699
  C   2.33889923881561     -0.02923605514606     -0.06506848359787
  C   3.21070961445933     -0.13307802136941     -1.34398454241902
  O   4.51342051029583     -0.48337327764703     -1.06659408430504
  C   2.65742537131991     -1.14376403532977     -2.35002788115791
  F   2.42371616819418     -2.34636050742514     -1.80594775270048
  F   1.48800461101332     -0.73665151171695     -2.90093558151074
  F   3.48587416996881     -1.33844908648661     -3.38379088753708
  C   2.81411274863734      1.09511591421901      0.80181161162338
  C   3.82225630744431      1.13331581737124      1.77662798711662
  C   4.74186394295783      0.10439126242870      2.08354942323863
  O   4.85431620010796     -0.97635683554717      1.37895771515000
  C   3.74074431483584      2.45777989053354      2.37369358840998
  C   2.74039363488488      3.15120292328371      1.72990093826913
  N   2.19883538824681      2.33928971506508      0.78873746384278
  C   4.53619259503857      2.96565848063368      3.42639342639035
  C   5.21909882826918      3.38499140972295      4.32667109003639
  H   0.43212447892091     -0.83299314855765     -0.75738000544608
  H   0.61204146252368      0.88675607064568     -1.05185681375152
  H   0.31315108149780      0.29747265960421      0.59416961776546
  H   2.52241313212736     -0.95223629846153      0.49002736913023
  H   3.16541809041059      0.83383932346499     -1.87278632839876
  H   4.64443089496134     -0.71148171334545     -0.05676248874472
  H   5.39054039513264      0.25119679425374      2.95276065116145
  H   2.39025945930002      4.15813372810541      1.88386721702068
  H   1.42519423034946      2.58431488987126      0.19866315179840
  H   5.82325383930037      3.75043222166300      5.11980445985269
