26
Coordinates from ORCA-job 24415optt
  C   3.32917289861966      0.42839318254472     -1.20263086451387
  C   2.37076601600653     -0.08953435869005     -0.13372663577204
  N   2.83728666850553     -1.32032290806378      0.46965760941398
  C   3.78455573372899     -1.21026290782604      1.51270212746807
  O   4.13006680633350     -0.08303672481012      1.85988994815386
  C   4.23305075892620     -2.46712997679192      2.05637699474702
  N   3.79414127448534     -3.68501878024847      1.59001819126674
  C   2.96406732785104     -3.66202185545996      0.58691253217814
  F   2.54329979609347     -4.87543032784317      0.11046554654953
  C   2.44892124905036     -2.56289640060588     -0.03561391808200
  N   1.48852328297957     -2.59642870346102     -1.07614803567565
  C   5.17945762775471     -2.48089837085941      3.12422741975398
  N   5.77770922168469     -1.48638942084589      3.75511490431270
  C   6.57196692011079     -2.09145152107044      4.67603590225634
  O   7.34244406471552     -1.33876363836307      5.50370795019763
  C   6.46028473443755     -3.43382516934882      4.61123506706031
  O   5.55810588130039     -3.69348103990334      3.60409288662801
  H   2.96253612245466      1.36400334628857     -1.63146451426029
  H   3.44594199193283     -0.29794144144408     -2.01074635631865
  H   4.30574973991769      0.60554485343718     -0.75262300299116
  H   1.38104374186276     -0.27065128148195     -0.55063557960466
  H   2.29361308137752      0.64685298658627      0.66423525081854
  H   1.20149915179609     -3.55702546255270     -1.21343287913236
  H   1.87195984400908     -2.26083965230482     -1.95741817869019
  H   7.14373945111167     -0.42730590842418      5.25748462307625
  H   6.89209661295382     -4.26513851845764      5.13328301115973
