26
Coordinates from ORCA-job 24413optt
  C   1.83386848975665     -0.51988904081646     -0.76577969901602
  C   3.03680096292001      0.27755302002848     -0.23686822741465
  N   3.31031138856183     -0.00055545897668      1.14651529184952
  C   2.62555513031995      0.69330170693979      2.03711186786326
  N   1.68226092773081      1.67356892178594      1.58939916781567
  C   0.87917182367233      2.18544206079258      2.39236581234435
  F   -0.02657986131473      3.07241789802150      1.92970135036210
  S   0.74265035287114      1.93108442561578      4.10437248416156
  N   2.13974810716081      1.06991885796547      4.43575957562549
  C   2.82519030627033      0.51430253970248      3.42284512397185
  C   3.93328077401719     -0.40361882987341      3.86542943407467
  N   4.62760488320586      0.15939687649759      5.02318433121630
  C   5.50425152176001     -0.76743164003030      5.68012009886584
  C   4.84558256644985     -1.93961896696470      6.31841038292233
  N   4.33235446413930     -2.82255589078448      6.84108613756132
  C   4.22510582130652     -0.06722882090980     -1.04734284730617
  N   5.11814316914110     -0.33326177074581     -1.71734426777709
  H   0.94988514606727     -0.19747646043375     -0.21703953300479
  H   1.99793557566699     -1.58220040456226     -0.58631784064828
  H   1.67994035130007     -0.35242471737963     -1.83359144215734
  H   2.84149464397752      1.34076290335976     -0.42420605418154
  H   4.63795732943669     -0.53872420587482      3.04542402536352
  H   3.50313487824192     -1.39187195334919      4.10229765814571
  H   3.93771918872137      0.55451775428689      5.65432666822076
  H   6.06938243865281     -0.26029895190380      6.46440869266850
  H   6.22624961996632     -1.15810985239115      4.95873180847306
