33
Coordinates from ORCA-job 24418optt
  C   0.80686491645886      0.08973912861601     -0.19036431702957
  C   2.31008127130259     -0.01868178291660      0.04037176964611
  N   2.58244702450822      0.38031946488901      1.42601439101510
  C   2.76117629388657     -1.47808617752474     -0.24658838493428
  C   2.26694983126522     -2.51201753694375      0.72968095219835
  C   1.28180237071702     -3.47165952535065      0.35174056659516
  F   0.38204665537960     -3.06096361353091     -0.60042796737925
  C   1.13000841547343     -4.71330579224667      0.88544425150943
  C   2.01471058348881     -5.15786517892824      1.90753186970177
  C   3.03100409725047     -4.25748489254690      2.32424758560921
  C   3.12619492013556     -3.03126351891818      1.74426506774668
  F   4.09707940042808     -2.16766316711352      2.21191582923665
  C   3.07797412903643      0.99638514288171     -0.88145771101582
  C   2.46853008640112      2.40637745549647     -0.80284689099522
  C   4.56701325498945      1.10222203733069     -0.51188254785920
  C   2.98975965312547      0.57088252295830     -2.29043497247551
  N   2.93452019659917      0.31739707660011     -3.40879903232151
  H   0.31350492568256     -0.72308241083017      0.34321477800100
  H   0.56509222796172     -0.01445187889098     -1.25095200494904
  H   0.42084355708494      1.04008177687204      0.17955465404082
  H   3.49025307942923      0.00684301066068      1.69431752012436
  H   1.93629743181287     -0.15642397685246      2.00127056695315
  H   3.85770918463965     -1.50474804112080     -0.25110414519414
  H   2.43408304257239     -1.74117406523081     -1.25862121052599
  H   0.30566642617764     -5.32731737485760      0.54295963526582
  H   1.96439971900980     -6.16468601789517      2.29530168278793
  H   3.71742373756913     -4.50761415676252      3.12463930623258
  H   2.41482936721169      2.69564317471233      0.24633223135524
  H   1.47040837264134      2.43585904301153     -1.23521810457459
  H   3.09729403225959      3.11409888521442     -1.34567148181393
  H   4.64895588118497      1.52635044210568      0.48846801032496
  H   5.07566344722741      1.76517609907295     -1.21328814821794
  H   5.06741246708889      0.13611384803877     -0.53161374905834
