29
Coordinates from ORCA-job 24414optt
  C   1.34008115378683      0.63529626683056     -0.78975132641106
  C   2.17343442498274     -0.25958955557025      0.12664266768699
  C   2.69333517538674     -1.46674632998511     -0.60858356664583
  N   3.63340136679900     -1.20552512800747     -1.55614918523901
  C   4.04015741184334     -2.27424612803570     -2.22528109538777
  F   4.97771089669740     -1.97393560809181     -3.17135288156095
  C   3.63551921515001     -3.56768035934168     -2.06589251541357
  C   2.64614614815415     -3.72036233356939     -1.01599488780485
  N   2.19299829813824     -2.63016457551652     -0.30520153169054
  C   2.11299040649073     -4.97669480424251     -0.69781655380263
  N   1.68367537464360     -6.04132851040069     -0.50351022144409
  C   4.03329539887412     -4.77883959296999     -2.88051811186453
  C   2.83977955846487     -5.28679894338944     -3.70813930697274
  C   5.17999360111370     -4.57604299033065     -3.90256792963343
  O   6.44127849218868     -4.28272705552656     -3.36202731447477
  C   4.55664299613266     -5.89599648902198     -1.97939171322670
  O   5.17585061805059     -5.73447251762176     -0.97054269291515
  H   0.99661634747826      1.53040908312785     -0.26681880410947
  H   0.46375040697890      0.09440207276214     -1.15218685873935
  H   1.93248444267088      0.93992144929599     -1.65286667079292
  H   1.57885889626345     -0.60436442314311      0.97189762336271
  H   3.02664664719497      0.30875644078608      0.50600973045251
  H   2.59800491438801     -4.54951817819411     -4.47544284817896
  H   1.96058246770066     -5.44813755886505     -3.08938338993127
  H   3.08826940917532     -6.23034403074651     -4.20189699929316
  H   4.86066790526295     -3.81677985697657     -4.62237286315244
  H   5.30251576794221     -5.51861086630691     -4.44357627502987
  H   6.36432469016767     -3.45878326196662     -2.86896534552882
  H   4.38898756787921     -6.91709621498213     -2.38531913225823
