25
Coordinates from ORCA-job 2441optt
  Br  1.90583228086259     -0.49813004291580      0.86968960944889
  C   3.36381921386923     -0.27665140457082     -0.30335371693532
  C   4.10215507915140      0.82858521922952     -0.27277865356087
  C   4.20463161153409      2.05036772303973      0.57066970268179
  C   5.58557185046622      1.85227033191271      1.28427142953837
  C   6.38526012015896      2.73209335502553      0.36610504528969
  C   6.20132135119019      2.02547966155267     -1.04896490012393
  N   5.21809792912749      0.92453682798316     -1.12013233459125
  N   5.83614803209277     -0.29421589549323     -1.54650517988272
  N   5.00932008464314     -1.31272603700932     -1.73102595692873
  C   3.74699457569087     -1.37017063950822     -1.25269874237494
  O   2.95837078248172     -2.28565573666874     -1.50148548800432
  C   5.75542062399234      4.13504194020364      0.57318307089358
  N   6.29538941210375      5.24044074589234      0.26272539909999
  N   4.52257090433928      4.19305072643588      1.27078589895095
  C   3.55312763062132      3.15506528384280      1.36207174506312
  O   2.52515414643915      3.29805930869440      1.95424307462989
  H   4.38573791722041      2.70849854055784     -0.27907957680202
  H   5.88479886820356      0.80765275614126      1.24392060002622
  H   5.57285108510732      2.18784001008837      2.31934552002326
  H   7.45076985090701      2.82837915585672      0.58897408333723
  H   7.14085473073783      1.54457501834621     -1.31748638374173
  H   5.98701460904900      2.78260068388162     -1.80941572982025
  H   7.19863792681503      5.07409659486163     -0.17462847412613
  H   4.25014938319525      5.10691587262005      1.60256995790923
