31
Coordinates from ORCA-job 24427optt
  C   0.97175555711610      0.02418979450012     -0.00088198191690
  C   2.49725478548618      0.08133160461566     -0.00482912174033
  N   2.90210407602762      1.44514844867534     -0.38760673611747
  C   3.07496480479016     -0.37394150651838      1.33876976690629
  C   2.53217169654940      0.37461442959283      2.55244348218142
  N   3.28450820715075     -0.02295078000254      3.71549263437592
  C   2.94752033153573      0.41993437861517      4.89624755576917
  S   3.97382291489100     -0.31831935540478      6.17849134278920
  C   3.20074803560844      0.27212755959395      7.63219362475129
  C   2.19390741862607      1.17636974951774      7.62603585965512
  N   1.61239713653806      1.73990287628183      6.53982213657791
  C   1.98985766792506      1.35372076261178      5.33922399842402
  F   1.30741877011765      2.00362243865641      4.33869640123718
  C   3.01032514994783     -0.82491102720907     -1.15532674775487
  O   2.53828791801226     -0.36301597260610     -2.40270489752613
  C   4.48385164521640     -0.90109636074445     -1.16381647285479
  C   5.68161633311742     -0.93345712634401     -1.17377318925083
  H   0.57072171131242      0.74863730681085      0.70850529028948
  H   0.63438434397676     -0.96589520259935      0.31049542262657
  H   0.57203815549165      0.23864841010085     -0.99121704247879
  H   3.89027857540730      1.56969644906942     -0.18484142903209
  H   2.40219166217617      2.12071735679076      0.17871771004164
  H   4.16052832366966     -0.24893363828082      1.32528080899520
  H   2.89042558969699     -1.44532782563432      1.47365477896011
  H   1.46348091758674      0.15604195356756      2.67748318972231
  H   2.59761919800337      1.45728099748475      2.36700132849599
  H   3.59485186677302     -0.12722383306274      8.55641152014976
  H   1.79142769635969      1.49818625414329      8.58290556199545
  H   2.61155783135005     -1.83139547221348     -1.00753827066195
  H   2.60180606282009      0.60381069182670     -2.33524865432135
  H   6.74417561671990     -0.96951336183498     -1.17308787028859
