32
Coordinates from ORCA-job 24424optt
  C   1.35309351015658     -0.26238511426993     -0.84496926447738
  C   2.63001759994699     -0.05960273799543     -0.03891952840550
  C   3.24525541297857     -1.38461492294350      0.40579015834232
  O   3.38730899651934     -2.22295723057670     -0.72310767933652
  C   4.57537491014881     -1.21601679115538      1.14091150995964
  C   4.53097750545319     -0.17621516886499      2.25555751434786
  C   5.07394543113098     -2.57140616109180      1.70672655080625
  C   6.52585252839231     -2.79815199159408      1.43361970073734
  C   7.57140761010293     -2.85298631011581      2.35040084206840
  F   7.28112624339376     -2.69246176134350      3.67513428131440
  C   8.89835359076656     -3.05683857228205      2.00326020215677
  N   9.32705468638932     -3.22235860184913      0.73785794563116
  C   8.34808689229499     -3.17407892592750     -0.19770910285050
  C   8.35002583889380     -3.28913257374357     -1.56502679624859
  O   7.08562555671725     -3.16347976039873     -2.05723039068070
  N   6.20110592979641     -2.96115598842284     -0.98550345287991
  C   6.95201837233075     -2.96925825229495      0.10208688243219
  H   0.92587218289902      0.69037262625407     -1.16372452979752
  H   0.60167809101715     -0.78677624606336     -0.24868491647784
  H   1.55759017158954     -0.86781729266107     -1.72654058596499
  H   2.41618765487217      0.55335396368380      0.84029195270802
  H   3.37194397528921      0.47679322421646     -0.64044925406388
  H   2.53337649417084     -1.87070573079401      1.09540655219223
  H   4.32756212427538     -2.45050263169042     -0.88409000482315
  H   5.29515878904900     -0.87946836345244      0.38748596319727
  H   3.71624201261434     -0.39500497652425      2.95358257569076
  H   4.39307168820322      0.83706914288868      1.87605308239473
  H   5.46765834069225     -0.20382305767760      2.81654931169592
  H   4.50512100309436     -3.37942633318740      1.23291468333170
  H   4.87102303912518     -2.61503811465619      2.77914010597616
  H   9.63911816480955     -3.08253461752552      2.79518699070517
  H   9.12776565288611     -3.45139072794082     -2.29100129968182
