32
Coordinates from ORCA-job 24426optt
  C   3.06059140169007     -1.27816786408668     -0.63051267166241
  C   2.52983388378448      0.03328589507693     -0.07217709954978
  O   2.71312438220029     -0.01233035352379      1.38056895348735
  C   3.99102797492939      0.35820302009380      1.79918348779549
  C   4.05748755936488      0.24177165570951      3.26364485324350
  N   4.14439861028228      0.15484477749241      4.40347300137682
  C   3.00468495146569      1.33784518777964     -0.66869668997011
  C   2.17076508876653      2.40750855776210     -0.39999246667679
  N   2.40167898356186      3.71149525938081     -0.63130889290917
  C   3.63192157687610      3.97398368279573     -1.15072394949304
  N   3.93601039169498      5.33405518730976     -1.35111882312954
  C   4.51358926465748      2.98861365442229     -1.47120710404746
  F   5.74168219299168      3.38953147867574     -1.96298716777425
  C   4.29573148158178      1.59066943699305     -1.29320924536039
  C   4.99806478803415      0.67025655549692     -2.27102811195095
  C   6.47212828064332      0.38468917914915     -1.96821976129910
  N   6.62237952668807     -0.18627885085828     -0.62449251938406
  H   2.60251147367486     -2.10104308101855     -0.07921388460975
  H   4.14490596548098     -1.35391480890593     -0.54042679616890
  H   2.79776203297369     -1.37684224789580     -1.68435142422972
  H   1.44117349450167      0.01686130507829     -0.14462847515911
  H   4.22499859497224      1.39216741946719      1.51868676557108
  H   4.76903383798813     -0.29022849398076      1.37759361460651
  H   1.22038237291234      2.19304712663240      0.08762298497292
  H   3.43755702979914      5.89642167539571     -0.67361596269869
  H   4.92944746485598      5.51677527069452     -1.33636376295123
  H   4.96304199777263      1.11878861919552     -3.27675855775372
  H   4.47643121752736     -0.27988378562931     -2.34213929742164
  H   7.04311491127234      1.31034176228503     -2.09234830404553
  H   6.85158496528784     -0.34160210136068     -2.69307457894423
  H   6.24413639283963      0.50107503110711      0.02248963858224
  H   7.60481790892797     -0.29394015073389     -0.39866775244634
