27
Coordinates from ORCA-job 24429optt
  C   1.48240865257042      0.67419649064460      0.50202389706679
  C   2.70689552382365     -0.09890440629602      0.03171140723130
  N   3.13600728679852      0.31464914437914     -1.29885261293808
  C   2.40010707129666     -0.17704433546620     -2.40998270107683
  N   2.54528404491042     -1.50294553588096     -2.74993746363958
  C   2.16652600241364     -1.86168729772568     -3.94474253077130
  N   1.67738738870865     -1.09286786955500     -4.95019592696003
  C   1.58432073709470      0.19930891360503     -4.61902801193428
  F   1.03992771808993      1.00005226671179     -5.55724693502125
  C   1.92916582131981      0.73026352590512     -3.41451381314051
  O   1.66202712116610      2.06167049927534     -3.09531599242789
  C   2.48487788404745      3.03913824994546     -3.58994291705116
  N   2.02848179912890      4.05605310483593     -4.17323226713572
  C   3.97414731222224      2.94678133142401     -3.26860185561790
  N   4.41043726059208      1.69772008809276     -2.68331592131995
  C   3.89119622876361      1.44451678468327     -1.39756733240192
  O   4.11076346027933      2.20460172811310     -0.46451093643472
  H   1.14239996020004      0.30957093680289      1.47373526122568
  H   0.67271153197511      0.55606407468664     -0.21989296737053
  H   1.72679077806185      1.73309022422043      0.58558777246390
  H   2.49826375043698     -1.16733633508882     -0.03066403986426
  H   3.54083980418912      0.05912216425928      0.71545386191109
  H   2.25377454372661     -2.91965456168512     -4.18020088604638
  H   1.01960055854404      3.96062865982268     -4.28479787673708
  H   4.18799130495038      3.74462310640389     -2.55550297519392
  H   4.53457793216747      3.15912187610225     -4.17729562659208
  H   4.26508852252219      0.91826717178418     -3.30917061022333
