28
Coordinates from ORCA-job 24431optt
  C   1.14965073441649      0.34562977580360      0.04537687967931
  C   2.55599523672742     -0.15108908205306      0.05708975305290
  C   3.07261494324463     -1.44513451123203      0.10036472482431
  N   4.41993677999969     -1.24016357332166      0.05442782112657
  N   4.72079117099680      0.07252973972955     -0.00295881213610
  N   3.59492503077364      0.71164481650077     -0.01047588969817
  C   5.38198775314910     -2.25416792823442      0.13036715925928
  F   6.43745197664397     -1.96419226218738     -0.72452191709906
  C   4.89642359313125     -3.60588562769184      0.12822856029645
  C   5.87739810468875     -4.70879931805259      0.14421600912537
  N   7.15326264162163     -4.36031504366925      0.58370860564116
  N   5.69108677761423     -5.94079677830101     -0.16597624549449
  C   3.50950530068190     -3.81041423024004      0.19331388675860
  O   3.03690149914333     -5.08677992523850      0.31469375719301
  C   2.57331435232317     -2.77501579738174      0.19050716670956
  C   1.12986444122080     -3.06324236338728      0.45173364281099
  N   0.59044281940680     -4.02945376020274     -0.53561429613669
  H   0.62784782241623      0.15805295980308      0.98818048347385
  H   0.55787692936432     -0.10858485730868     -0.75447287396214
  H   1.17064866121517      1.42311138896540     -0.11797280074204
  H   7.44133078752145     -3.40993438721150      0.41855403867754
  H   7.83503068276846     -5.05477963047815      0.31984563623322
  H   4.71922592849090     -6.09304289645420     -0.40205090675955
  H   2.10783429367272     -5.08114874559961      0.01787211043709
  H   0.56508469351549     -2.12978759800768      0.46895266990839
  H   0.99720903071537     -3.53828327704237      1.43291755485375
  H   0.73069579184403     -3.66352517996562     -1.47145035470231
  H   -0.40233777730789     -4.18343190754091     -0.39785636333082
