30
Coordinates from ORCA-job 24430optt
  C   1.25434103936147      0.41458721138221      0.27867845284613
  C   2.72864795223205      0.04487970332364      0.17339837008621
  C   3.03647754660103     -1.18155107537337     -0.72140153702343
  C   1.94030520891898     -2.24376070145260     -0.81718566920506
  C   1.67435432708970     -2.94506319731459      0.43771853001060
  N   1.45863134412024     -3.49756619931250      1.41988209849974
  N   3.30581337059221     -0.65583652194330     -2.05202867154614
  C   3.58617936300699      0.60362206592338     -1.85825755374712
  N   3.45703878850919      1.08353320739209     -0.58510151152722
  C   3.44045316170128      2.44228651129645     -0.25335786090412
  C   3.38669046704141      3.43620148186000     -1.28781179170623
  C   3.43741529895958      4.79393712681784     -0.93822291693060
  N   3.30178583379842      5.75176850827499     -1.97797173254722
  C   3.56554408451667      5.19860136262905      0.37456993435656
  C   3.63156192927420      4.21584582761574      1.40805356149812
  C   3.58428775859326      2.88722904214441      1.05464627378417
  F   3.69513909306865      1.95710804941715      2.04933459664147
  H   0.69581232776011     -0.35473051166119      0.81660053424606
  H   0.82518314269471      0.54394324013687     -0.71792237942579
  H   1.15351123154807      1.35659490944704      0.81776831136182
  H   3.15361321592390     -0.07480800217208      1.16601238489847
  H   3.94177667760254     -1.66940937762668     -0.32920947286627
  H   2.25016899884918     -2.97511693999364     -1.56440251930088
  H   1.01220192576476     -1.79068381051743     -1.16748015671537
  H   3.93438708586457      1.26508788452843     -2.63847420004297
  H   3.11083097536077      3.15641900726414     -2.29635878833746
  H   3.77302238437445      5.43859651696395     -2.81790274073765
  H   3.67202030099614      6.65169010740553     -1.70469532503431
  H   3.63660687208233      6.25302893348103      0.61491185906262
  H   3.71719829379313      4.48156564006342      2.45220992030586
