33
Coordinates from ORCA-job 24443optt
  C   0.91569874594744      0.39193023120226      0.64581786565875
  C   2.27727281942125     -0.02962546917381      0.08405874708465
  N   2.98223336334411      1.05049960192381     -0.52978795473429
  C   2.51213668526744      1.67358882055682     -1.59465098505496
  N   3.19236569847977      2.92288125879963     -1.78453910551694
  C   2.66741766883097      3.86309648883428     -2.64695108842892
  F   3.29121302336028      5.06232647605115     -2.54901917012795
  C   1.71678700886880      3.59419051973572     -3.56455502615605
  C   1.17300952333639      2.28870924581196     -3.56942394422369
  C   1.55357376759285      1.34052250588815     -2.57193041821403
  C   1.07126599623432     -0.07293225919315     -2.74227735411205
  N   2.10965466285025     -1.03666979624916     -3.17520996393082
  C   3.15850670254153     -0.60891147489835      1.21564509413055
  C   4.50557704968469     -1.08644756684552      0.66928872445216
  O   5.30947033854374     -1.69991720411829      1.66727723639657
  C   3.40316472566580      0.33540149338512      2.30843135147976
  C   3.66795520532646      1.05616764226769      3.23197367862709
  H   0.30777512102950      0.82747536632010     -0.14778013250693
  H   1.06075938414857      1.15152216304895      1.41660143709579
  H   0.38113167627349     -0.45857298348401      1.07999097722858
  H   2.10592271409106     -0.89900285291665     -0.57651482456392
  H   3.57435781567065      3.26872164214435     -0.91408624618421
  H   1.42131760866735      4.36012544531495     -4.26747641694843
  H   0.42099127299552      2.02041860446513     -4.29999325157643
  H   0.29435330237711     -0.07879369321369     -3.51028055242973
  H   0.60832553379920     -0.49294592773122     -1.84672720382522
  H   2.50494556205757     -0.67424279235407     -4.03909948524755
  H   2.87683660985810     -0.96980157073632     -2.50968547283231
  H   2.64269378604235     -1.47500129649628      1.64483988369429
  H   5.01053634968351     -0.23636868174922      0.20834578906637
  H   4.32769803933626     -1.84486564551382     -0.09523369323221
  H   5.38835059679771     -1.06660166110936      2.39009932535682
  H   3.87870164187585      1.72812337003282      4.02785217957533
