28
Coordinates from ORCA-job 24446optt
  C   1.08556157367317     -0.00043941420043     -0.12725269031162
  C   2.61557813162946     -0.05163704630024     -0.03765806275671
  C   3.12050052084438     -0.19669025428603      1.37122560029114
  C   3.23972806062120     -1.44017603801364      1.96855351921385
  N   2.89752647737768     -2.59288596007750      1.23174494408897
  C   2.95156717606197     -3.80620576260744      1.86520395543855
  F   2.53162434254675     -4.81305180466193      1.07125855674562
  C   3.42548041331566     -3.96527356156080      3.11568097676440
  C   3.56412640055956     -5.31271710617082      3.75607106125083
  N   3.80910977050534     -2.88054912044815      3.85183786757959
  C   3.70750783199798     -1.65702699323105      3.29712959331349
  C   4.09246662715079     -0.48954563289989      4.11176019716353
  O   4.52220253799134     -0.59817299637486      5.27400072108382
  C   3.92424666447434      0.78212190223076      3.46650336752964
  C   3.46295409641115      0.92315093748989      2.17035091972991
  C   3.32140375593234      2.23870821859950      1.62155735352748
  C   3.19279238523820      3.34159548947804      1.15422546986185
  H   0.74120556662079      0.06773863678697     -1.16258848110315
  H   0.71657871152834      0.86889808251784      0.41890756841149
  H   0.62927610214946     -0.88405172878018      0.32654240325115
  H   3.01859452360195      0.86522430438183     -0.47074808001950
  H   2.99577301521031     -0.87180194346643     -0.65660003038353
  H   2.21953896407833     -2.50378600604347      0.49047208554216
  H   3.23028394293473     -6.11376522670318      3.09757438618635
  H   2.98198050580519     -5.34114870318509      4.67901057330984
  H   4.60755120029579     -5.48437147696280      4.02775752692472
  H   4.18125065693850      1.65960736153603      4.04581850665610
  H   3.08059004450520      4.31725184295307      0.74966019070998
