25
Coordinates from ORCA-job 2444optt
  Br  1.69667285666287      0.47989223076480      0.14786124544356
  C   3.53309822099118     -0.02844133365020      0.09615473475077
  C   3.87697741364030     -1.34918762764648      0.00837260495982
  C   3.13289611366819     -2.57626858252335     -0.05002058058298
  C   1.87815910076669     -3.17787328395954     -0.02485505656141
  C   2.09675056012607     -4.57445439999706     -0.10591372467307
  C   3.45955689071039     -4.81141372558492     -0.17584840189395
  N   4.07031139358894     -3.58843877147431     -0.14207823767335
  C   5.35770444110396     -3.07445132522475     -0.13658667353254
  C   5.29035167390795     -1.71040308469258     -0.04588672484309
  C   6.32344324564412     -0.69612038204085      0.00653120909861
  C   5.85497204000141      0.64270645339301      0.10247352904597
  C   4.51932162834487      0.97827397133639      0.14529777192900
  C   7.66597300922699     -1.02086847979495     -0.02289070994718
  C   8.20923598738502     -2.34781739665766     -0.09055299118569
  C   7.67047319685208     -3.58227149890630     -0.17592981946727
  O   6.35068000902784     -3.99106828491447     -0.24405613467997
  H   0.93192239316317     -2.66933349366704      0.04291717410422
  H   1.33632235133222     -5.33927901877928     -0.11436306369323
  H   4.02937563587643     -5.72095722658708     -0.24530634320217
  H   6.59499250917853      1.43436134099337      0.14892304593615
  H   4.21503984057677      2.01352742302366      0.21821957205081
  H   8.38302931246002     -0.20994258028736      0.02816424680048
  H   9.29374263151742     -2.39998277787487     -0.06704400302901
  H   8.30299754424643     -4.45718814524809     -0.20558266915449
