29
Coordinates from ORCA-job 24458optt
  C   1.56986320069805      1.04124059634511     -1.08138138681445
  C   2.67662207160485      0.38963379197288     -0.28930517859032
  O   3.24098786703519     -0.60154579388315     -0.76508993233253
  N   3.01799836023138      0.91235338843852      0.91497622178765
  C   2.40556492226400      2.13655930862944      1.39406949445156
  O   1.18250644625243      2.35301946946548      1.29094570322750
  C   3.35453437172322      3.06249793242453      1.89288883486209
  N   2.87445815126895      4.31307158610528      2.25229730812221
  N   4.64403764033789      2.79614356300388      2.09375711271642
  C   4.95988415754235      1.49725903668119      2.06800263433513
  F   6.15838790351116      1.24499436006151      2.62029598108785
  C   4.20144615008716      0.46154106720204      1.62268890278301
  C   4.35326132430840     -1.01627105499848      1.96482197901727
  C   2.97856089744337     -1.57369143831543      2.35358005254587
  O   4.89108372931687     -1.79419830145202      0.89556197413071
  C   5.31524075663052     -1.30631326923099      3.14284682848554
  O   6.65752332157367     -1.43758858484007      2.74448805091849
  H   1.58628875044429      0.58967979957437     -2.07002391789897
  H   1.70924904750260      2.11971317203391     -1.14334760211654
  H   0.60691377535335      0.88328275455992     -0.60072104925129
  H   2.00775249091207      4.55400794490409      1.79350893350182
  H   3.58572307353627      5.02694292398648      2.24943754884915
  H   2.25149825574099     -1.42161930001288      1.55812130740351
  H   2.60894605429183     -1.08298855391035      3.25732696613130
  H   3.07347646597667     -2.64448843477513      2.53505291358940
  H   4.42608080584929     -1.47307725489727      0.09591237247938
  H   4.98153196301414     -2.24947445923251      3.59446053774312
  H   5.24309003927049     -0.52268447553460      3.89704816520096
  H   6.61048800627821     -1.68799977430581      1.81077924363403
