31
Coordinates from ORCA-job 24454optt
  C   1.24219600775397     -0.61499510174420     -0.08407060448353
  C   2.59272785555130      0.09012768640885     -0.17061852579600
  C   2.86706122911186      0.45748125980998     -1.62511997984246
  C   3.74848724057147     -0.74636331725366      0.47531671014273
  C   4.17817960685627      0.16347820702259      1.64677780337174
  C   4.17115377379278      1.55500351568236      0.95099869165758
  C   2.64749128910615      1.31981580169761      0.77317413314120
  C   2.75668257037637      0.63739101808283      2.10563858386163
  N   2.03158149679079      0.70320129735966      3.13012055269616
  O   2.56085448608944     -0.09355045038760      4.17665353035792
  C   5.30376064600701     -0.18890615920441      2.54840890244554
  O   5.93680076294134      0.73785894968716      3.16737017046502
  C   5.25566084192275     -1.57655090583704      3.16249327330309
  C   6.24877580076802     -2.56234202953892      2.61372154383875
  F   7.52424523750165     -2.17431123711514      2.73773028984852
  F   6.16940854223592     -3.76587238627094      3.24713995025966
  F   6.05437928277908     -2.84018549358350      1.30829063160522
  H   1.24677011538905     -1.52844355541125     -0.68493751567348
  H   0.44242700606695      0.03212013086091     -0.45781223585061
  H   1.00644423872815     -0.88325280345456      0.94682454933334
  H   2.90974311498860     -0.44526265061153     -2.24057057459544
  H   3.81450541479972      0.98303358965626     -1.74139209612898
  H   2.07023609136611      1.09599028983185     -2.01846109723051
  H   4.59026847364568     -0.89550754734116     -0.20540193960157
  H   3.40736069873026     -1.72741012813818      0.81254920840393
  H   4.78600203652103      1.63432950640056      0.05371194746699
  H   4.41552201442319      2.33580117222499      1.66640214758672
  H   1.93440671915475      2.12269737486347      0.58710542918349
  H   2.04245204680888      0.18882104872562      4.93370109595234
  H   4.27236756412932     -2.05222269066220      3.05733767262100
  H   5.46804779509208     -1.48597439176042      4.23291775165995
