21
Coordinates from ORCA-job 2445optt
  Br  1.21985811888044      0.64355506731168      0.05294602732950
  C   3.04160465647738      0.11956916019576      0.05710128698485
  C   3.38920666020716     -1.20585091524172      0.06496738628847
  C   2.92556063465465     -2.58251667895752      0.07082885164316
  C   3.99138202546787     -3.50722608046830      0.07709829181523
  C   3.40794325089339     -4.79483501987173      0.08105535988286
  C   2.03609288973265     -4.62203102254057      0.07699674675478
  N   1.75289908493704     -3.27877619097989      0.07091630313092
  C   5.23105526564889     -2.70321393783074      0.07531951546627
  C   4.78039057637792     -1.42169486185702      0.06813663475776
  N   5.81285344072312     -0.55834937347004      0.06453730495926
  C   6.93482807078453     -1.38785347206337      0.07007952484461
  N   6.61083961221170     -2.66720273187441      0.07670032169392
  C   5.53152320433874      0.82549273054105      0.05538513386439
  O   6.41311295286796      1.65215059755683      0.05103046443910
  C   4.03675135049492      1.18018922057582      0.05142401463096
  O   3.74596916322364      2.38328655973757      0.04333051457347
  H   3.90932231121680     -5.74873897155280      0.08611824556064
  H   1.24397347453819     -5.35123130047219      0.07808656591113
  H   0.83705456556817     -2.86724470763337      0.06689642440941
  H   7.93277869075477     -0.98547807110500      0.06904508105933
