32
Coordinates from ORCA-job 24467opt
  C   0.95033396140189      0.43353189083831      0.20872797499314
  C   2.42819027216094      0.13142000603800      0.07353603055834
  C   3.26855542435929      1.20448982806675     -0.06759291654909
  F   2.72314674894161      2.45281066694224     -0.24584307788220
  C   4.66137714322661      1.18601360574519      0.11570676432003
  O   5.39886282446506      2.12484539213492     -0.68750421324201
  C   6.36865698746000      2.83226899113705     -0.15528827178360
  O   6.82282553916999      2.76618739940915      0.95801274543822
  C   5.24409840276406     -0.07229728817409      0.42770863242047
  N   6.62774800891588     -0.16925667006668      0.69163774184417
  C   4.40946230713787     -1.14885635501738      0.51527996035251
  F   5.01045452307538     -2.30907517285603      0.98280038536438
  C   3.00747142112351     -1.17010047271225      0.29788223371865
  C   2.34767596237640     -2.52547483253364      0.00132215848617
  C   2.24091541198151     -3.38499665141883      1.27344588255248
  C   0.93940377037461     -2.41717958893151     -0.59215175445993
  C   3.17726785220753     -3.28737561839733     -1.05300395390560
  H   0.81148482325397      1.49575387572062      0.40339310153108
  H   0.52603409687866     -0.12293349316640      1.04810148923323
  H   0.36664316145921      0.18785589057737     -0.67956928403113
  H   6.74394723659122      3.54448757882303     -0.90486033709756
  H   6.94895814843575      0.62356060068158      1.23622400232696
  H   6.85409246123812     -1.04404531611652      1.14426483837664
  H   1.60857725776716     -2.88075206969141      2.00795017832416
  H   3.22031453352040     -3.54325298167656      1.72119705587532
  H   1.79713582929610     -4.36119264044232      1.04483309402018
  H   0.21712367924026     -2.01688513721619      0.11669943129995
  H   0.60305408711950     -3.41859737710158     -0.87579518314153
  H   0.93503096124827     -1.79327535462877     -1.48753029392486
  H   4.19564334470517     -3.46870992806918     -0.71651714649694
  H   3.22231229982043     -2.70549165810089     -1.97627642566607
  H   2.71220151828357     -4.25347711979662     -1.27579084285556
