29
Coordinates from ORCA-job 24466optt
  C   3.44799356899765      4.28265286241167      0.51043610118198
  C   2.50972094749286      3.14696777190147      0.13486519797156
  N   3.13853448363584      2.21049832660984     -0.75490818366682
  C   2.85360362800281      0.87763564867514     -0.83141558533449
  C   3.23492246035873      0.43192388901824     -2.05780216499871
  C   3.73289521957477      1.58736635300477     -2.75318645429536
  N   3.62134543786761      2.68377108423073     -1.94917824514779
  C   4.28145300182418      1.69024325538882     -4.05713451064637
  C   4.75271898727158      2.95425361458324     -4.54545322746169
  C   5.29810782701817      3.07584885628002     -5.80144351464858
  O   5.76259281311135      4.29177074775302     -6.27369809174507
  C   5.42223231005572      1.99270233804298     -6.67153667687486
  N   5.95455579763214      2.06854119980934     -8.00250190997980
  C   4.94471662337060      0.73696021141567     -6.21616002591725
  O   5.04043242921940     -0.33708074627965     -7.05762436841972
  C   4.40254250139688      0.60768707150672     -4.96846193665667
  F   3.96366928415482     -0.62514792591358     -4.59434923439564
  H   2.94117253850900      4.99719662436027      1.16234452949104
  H   3.77659253715776      4.79115679453156     -0.39464110041748
  H   4.32954567304831      3.89451157583867      1.02278018845779
  H   1.60650165850460      3.56286485189570     -0.33753507724699
  H   2.19811336967240      2.59228701260227      1.02284979599754
  H   2.42692946761618      0.35495213437521      0.01115267763635
  H   3.19835787121342     -0.57934823168612     -2.41976299620013
  H   4.69017975334575      3.81171317231761     -3.88561909122853
  H   5.57829613351408      4.94281192784056     -5.59019436172116
  H   5.42368166377051      2.71636452623743     -8.57695773661141
  H   6.90933163513701      2.41074723114395     -7.99936834741044
  H   5.45026037752572      0.03114782210435     -7.85649564971120
