27
Coordinates from ORCA-job 24462optt
  C   1.70756726074307      0.96732093152263      0.79086537166288
  C   2.43640157354561     -0.06787082609229     -0.06577684111894
  O   2.29741989844391     -1.27667517518722      0.21437069696978
  C   3.20279040871470      0.45518713176838     -1.13125145523478
  C   4.03802431904595     -0.14001273966647     -2.13098217958434
  C   4.47786854345571      0.92004194340166     -3.00664726131213
  C   3.94851521277739      2.11017978842021     -2.55700029287892
  N   3.23544813482304      1.83998164641865     -1.39773558158423
  C   5.33347259568899      0.62845863427917     -4.10263854810677
  O   5.68764833611644      1.72667896760743     -4.86713607208807
  C   6.56570295653581      1.46633185095752     -5.92162573787587
  C   6.87324585201569      2.71150196219725     -6.62607781335921
  C   7.14757241720524      3.71077281530626     -7.22623191177308
  C   5.73804731414864     -0.66140803510510     -4.33150257878872
  C   5.32025938066734     -1.70394375502158     -3.47129941253815
  C   4.49816862478038     -1.42835181587963     -2.39875135012409
  F   4.15905867240576     -2.45404431893420     -1.59904462822848
  H   1.22880450729186      0.44217824505266      1.61473439622909
  H   0.93228666559870      1.49454160526132      0.22052713373111
  H   2.39200780696060      1.72222764507775      1.19133766788385
  H   4.07732656953666      3.11072709300385     -2.93007569967602
  H   2.51244046195666      2.45020867478020     -1.05872301959130
  H   6.12631385653965      0.75306181574279     -6.63102983069752
  H   7.49882929212450      1.02353908754366     -5.54920968077002
  H   7.38199916046265      4.60600569031553     -7.74889575861657
  H   6.38505091988899     -0.91233589484040     -5.16126714766813
  H   5.64572925852587     -2.72130296793006     -3.63593246486121
