34
Coordinates from ORCA-job 24460optt
  C   0.78378859213080     -1.93210250982839      0.41457457398709
  C   2.20125564724703     -2.08907029193318     -0.13149516338781
  N   2.24527484679612     -2.17224909121904     -1.59929018003853
  C   3.08262357398942     -0.94191042743650      0.36226876419802
  C   4.60010966420562     -1.25597309436571      0.43556467075894
  C   5.21656587603950     -1.01531736196000     -0.94482755135882
  C   5.28905393356127     -0.27801964676459      1.41082478359371
  O   4.97225283100292      1.08714510444614      1.13836722645857
  N   4.86476733902866     -2.62186129449578      0.93288696291035
  C   5.39307803443489     -3.62072414211045      0.05748629160308
  N   5.94143114766298     -4.75931009231169      0.55966697273714
  C   5.51930873948756     -5.13304671349919      1.73988932469225
  O   5.99591028328845     -6.30991106711670      2.24746469999043
  C   4.57678936528011     -4.41398302188248      2.45654777074678
  F   4.14635382307738     -4.85917357623061      3.67790196309433
  C   4.28176703958517     -3.06206849918070      2.13131732244638
  N   3.55536499091582     -2.26409011456695      2.86477117105943
  H   0.13787236627881     -2.73873823356717      0.05988676678803
  H   0.35274966252365     -0.98021468759639      0.08477461375325
  H   0.79921837011866     -1.94834417367959      1.50592509397620
  H   2.61180617594933     -3.02976064217268      0.24068213231795
  H   1.67941619332676     -1.43113593465878     -2.00282226818941
  H   1.85213703748260     -3.05325589226841     -1.90949972007701
  H   2.74176786286298     -0.66457862368712      1.35872953564489
  H   2.94180634993381     -0.08506201960410     -0.30788472809452
  H   5.08144234227866      0.04260434749721     -1.17322430185745
  H   4.71940247104611     -1.60542950152279     -1.71183526249593
  H   6.28702094855729     -1.22581572825593     -0.94287954355781
  H   6.36874625015883     -0.37075357482749      1.28354352993248
  H   5.02140720682635     -0.53791016361570      2.43262978473608
  H   4.05713199757923      1.22235390449070      1.40007985783861
  H   5.81081464463821     -3.25470824418044     -0.86127543663850
  H   6.57867287266165     -6.63746313962386      1.55058102697744
  H   3.27589152004326     -2.78112185227156      3.69266931545432
