26
Coordinates from ORCA-job 24461optt
  C   1.15568526258846     -0.27307009642481     -0.41442666728326
  C   2.52121572864053      0.04894723943283      0.13864508205610
  C   3.05429940646304      1.31291414823168     -0.15254477064871
  C   4.20771431505679      2.05816582688818      0.21552581390857
  O   4.53988843070421      3.10825888367086     -0.40535055930065
  C   5.05303798737455      1.72940466805941      1.43861503262123
  C   4.44537925808345      0.70537019257036      2.40994943111247
  C   5.28253640158168     -0.38917240005077      1.72108720379205
  C   6.21880878045265      0.72472641067138      1.21672326787023
  O   4.71820526536380     -1.01368096668780      0.57860428418025
  C   3.33763707957342     -1.18149148017439      0.43171999485439
  C   2.80010339443599     -2.11710924138828      1.53360675749483
  F   2.71309210430878     -1.58568708064481      2.76052318872311
  F   1.56955229087566     -2.57175610488974      1.23370913394351
  F   3.58013962850975     -3.20940650248768      1.65366481947706
  H   0.76469954196477      0.58723200731808     -0.96017665631995
  H   0.41638737221119     -0.53415157829737      0.35020066663707
  H   1.18394420905601     -1.12908365976719     -1.10860486811410
  H   2.44191101166760      1.90451262704440     -0.83365135753597
  H   5.34826333956496      2.69026223849919      1.86039096308800
  H   3.36516564335182      0.61279629809593      2.43228909427704
  H   4.82739187188967      0.84166381102084      3.42431631094225
  H   5.69958752848093     -1.17016323160409      2.36508465456455
  H   6.59304564573796      0.60090782361064      0.20158219749053
  H   7.04371101205241      0.90254640845016      1.91096332715277
  H   3.25659749000986     -1.84593624114700     -0.45044634498338
