29
Coordinates from ORCA-job 24470optt
  C   1.02602297220554      0.01618902169427      0.00761128915533
  C   2.55076861815281     -0.08317889713789      0.07537066715163
  C   3.07928778918138     -0.02656314869099     -1.36581594396436
  C   3.07875397241917      1.16586735851965      0.82893664718890
  C   2.55662714654095      1.29712924551145      2.18649883158340
  C   2.11603027202513      1.40028535696836      3.29697237488060
  C   3.01418002559862     -1.36668030132519      0.76708826117315
  C   2.08039842671797     -2.31443281595299      1.27696672111623
  C   2.54516368190635     -3.49199310418193      1.90943419427262
  N   1.61321414753640     -4.43850731769478      2.40981945525361
  C   3.88184335150820     -3.72006267267917      2.01253652824739
  F   4.30354979625880     -4.84655260133404      2.65095369335330
  C   4.87856402527758     -2.82373569364636      1.51004033780889
  C   6.24687974626421     -3.07490289261328      1.60570722767523
  N   7.38888682253743     -3.28717108100455      1.69161072324974
  C   4.34665295480854     -1.64805696938967      0.90082026433811
  F   5.28101186167680     -0.77037237950642      0.43092626382943
  H   0.74680460128276      0.95368839649154     -0.48055311550282
  H   0.58024098645051      0.00087019518524      1.00199600536292
  H   0.61271807259980     -0.80897339983006     -0.57391687058330
  H   2.70235335674779      0.86720579639212     -1.87297069600289
  H   2.73327049319859     -0.90435831543367     -1.91383570091514
  H   4.16694110605350     -0.01323672193109     -1.39592639566525
  H   2.79892522265493      2.05995502083507      0.26092371861080
  H   4.16753403678889      1.13148864785188      0.86997406631191
  H   1.73753693542081      1.46729167648772      4.28752249854202
  H   1.01640889756444     -2.18341567643153      1.15937109094454
  H   0.86315075711533     -3.96900837651641      2.90195519576003
  H   2.06527992350673     -5.09176835063727      3.03598266682398
