28
Coordinates from ORCA-job 2447optt
  Br  1.24970294694653     -0.00444153198508     -1.71633654336299
  C   3.08782453184336      0.24687190014401     -1.14640174379331
  C   3.74966297368979     -0.82084814241620     -0.62926034848129
  C   3.33775360989943     -2.25592746037904     -0.46540856499641
  C   2.24080530113364     -2.50057646654701      0.58397135388299
  C   2.78066982681806     -3.68692660352147      1.42874867137860
  C   4.28698600009568     -3.36488381252998      1.41886418783702
  N   4.55599113353910     -2.94701199573135      0.05256888239497
  C   5.70350068503260     -2.01761975484476     -0.04722707145901
  C   5.07825422260721     -0.66089999303235     -0.16527548309832
  C   5.65951023194520      0.62794186072925     -0.38128251393783
  C   4.87218870773213      1.62349457358025     -0.90009707968028
  N   3.56434870082092      1.50366922255489     -1.27768222178314
  C   2.53332729988745     -4.96613780843421      0.64895581299470
  O   1.77849360595158     -5.84143801172549      0.97106691517406
  C   2.21716793912373     -3.75842613512054      2.76870199437245
  C   1.77123132537121     -3.80365117349136      3.87969954546596
  H   3.04491777616012     -2.68870585173916     -1.42764778300303
  H   1.26354452547208     -2.70353350991353      0.14864194896928
  H   2.15164406737664     -1.63071539552825      1.23543615216227
  H   4.89305252735102     -4.23282323485948      1.69705590857087
  H   4.46837485385131     -2.56248301261390      2.14954086034593
  H   6.30566953136373     -2.28555089513123     -0.93323518343003
  H   6.35654972647714     -2.15061187470119      0.82274248017782
  H   6.68780794167350      0.84769828390980     -0.11760086413664
  H   5.29027224601596      2.61825009699821     -1.02968195158312
  H   3.11468457308557     -5.01960747330849     -0.28978175449074
  H   1.36806318873525     -3.84710580036228      4.86192439350923
