26
Coordinates from ORCA-job 24473optt
  C   1.04970903288444     -0.02679860479835      0.07442259337285
  C   2.55042334003352      0.06135239283594      0.05451074008857
  N   3.18854358423997     -1.11047272566428      0.04948938002631
  C   4.49573569490353     -1.10644696302507      0.03201106181032
  F   5.07815335173799     -2.33383148620608      0.02176620359081
  C   5.30703812669232      0.00722680279269      0.02434578002475
  C   4.68850214272930      1.25969252327720      0.03282898122134
  C   3.24946184869101      1.30722215319015      0.04298466743563
  C   2.66285606370343      2.57395394547046      0.03960252628169
  F   1.30273462628725      2.66373192293187      0.05390012585130
  C   3.35646348901247      3.80507649234572      0.04683560364831
  C   2.68055574383229      5.04979713615072      0.12104857233907
  O   3.20409299847583      6.19649454090375      0.16768435268549
  C   4.79712442675316      3.70197230535397      0.03071945216672
  N   5.51656390483899      4.86971380296142     -0.01436912310576
  C   5.43297290678918      2.47768979723752      0.02696872068498
  N   6.86677710026600      2.40071110107380     -0.02286951231999
  H   0.77140143755278     -1.07866810081146      0.08247100769174
  H   0.60624637229193      0.45948693435616     -0.79629320648100
  H   0.62987781968163      0.46660115633907      0.95292215999178
  H   6.38260492229133     -0.07766513567422      0.00249856244480
  H   1.58483208309122      4.97784033028287      0.14836004447568
  H   4.95190253571046      5.70563190240907      0.14109371354802
  H   6.45616054748035      4.84137189989804      0.34114094857062
  H   7.24036239116101      3.04679568745107     -0.70920135614600
  H   7.29790350886856      2.61352018891794      0.87112800010193
