27
Coordinates from ORCA-job 24480optt
  C   1.12561706731632      0.02830732336538     -0.09676437043946
  C   2.62653712234366      0.01888270537544     -0.08184163248641
  C   3.34474981062771      1.17253281757658      0.08908895743827
  N   4.74505396048650      1.14279359766737      0.13807727346432
  C   5.38858563044124      2.42573911070061      0.07700405399851
  C   5.55966467438739      2.88698342142283     -1.38521716840412
  C   6.13356021966804      4.22460675349479     -1.47216979098574
  N   6.57877852061536      5.28163415947034     -1.49732699909774
  C   5.49236590187245     -0.02138194406524     -0.13424121523790
  N   6.75593032564820      0.00093566491946     -0.38658926245141
  C   4.73887200924252     -1.27924062466827     -0.14896556782968
  C   5.39778366067847     -2.55516403705808     -0.15559024265849
  O   4.86522963592428     -3.62508451833816     -0.49733734200146
  C   6.75444953024235     -2.66149730665770      0.39261567286650
  C   7.81010735217948     -2.92311728980353      0.90527999442285
  C   3.33171548882728     -1.17468140678528     -0.19163364662059
  F   2.57461524501903     -2.28965409410475     -0.25752989069384
  H   0.75169607459730      1.04275593013443      0.04778805431011
  H   0.71817409216912     -0.60652398506299      0.69220968602653
  H   0.73703232217512     -0.35132887890141     -1.04384525951333
  H   2.88300907029553      2.13399097112763      0.26001321788686
  H   6.35364380093761      2.40168157683021      0.58214197342861
  H   4.76888132772189      3.14692285051446      0.61047075409336
  H   4.57866974604431      2.88836984508228     -1.86528172832784
  H   6.19472894923636      2.18035705622448     -1.92199276935621
  H   7.16431247631640      0.92421368521970     -0.30932568647850
  H   8.76423598498600     -3.11103338368061      1.33196293464676
