32
Coordinates from ORCA-job 24492opt
  C   2.40385960313179     -0.85236957937590      0.65127092105244
  C   3.60173426754142     -0.94364572954749      1.59182657127243
  C   4.63175139376009     -1.94012342114735      1.06184139742749
  C   4.22778602712226      0.42541082354588      1.85931698793390
  N   4.76650069290661      1.03509930284802      0.64046090108346
  C   5.32997869218238      2.33785264117225      0.84791357194015
  C   4.60751677678048      3.52700529811199      0.52925330853966
  C   3.24651205704881      3.52514099468803     -0.10535246202934
  N   3.14763150177566      2.82076156469764     -1.40561035026350
  C   2.19481969739132      3.00835097611810      0.78842559250840
  C   1.33495378163499      2.62456629383315      1.53420614610287
  C   5.24490590806674      4.77971171871914      0.73639276796851
  O   4.78769655029947      5.90951748544776      0.48539486412009
  N   6.52259277078451      4.70874260284523      1.28389875502104
  N   7.27841548257575      3.58837342313706      1.54915621479651
  C   6.62036683449770      2.48477139956032      1.33551985085787
  F   7.33083422820820      1.35608931955067      1.60854130062551
  H   1.93385757463710     -1.83105534425350      0.52326231438151
  H   2.71781611218994     -0.49063750872313     -0.32894154731169
  H   1.66075123393042     -0.14890816044472      1.02778876948840
  H   3.25057080903183     -1.31094415723417      2.56273209455938
  H   4.94034022005772     -1.67404268806385      0.04789173458906
  H   4.21414143241102     -2.94844356629502      1.01712528940984
  H   5.52399058103067     -1.96442820676390      1.69184191101170
  H   3.46966220216158      1.10522309685465      2.24925948501674
  H   5.00848132806323      0.31987347501244      2.62706585363296
  H   5.49723924875216      0.43122652735166      0.28027939169130
  H   3.00831215429091      4.57730173511656     -0.28169841615850
  H   3.47201498584733      1.87102445309458     -1.23946242876038
  H   3.84357400583874      3.24609194263789     -2.01121241829811
  H   0.58606788052799      2.27905176794961      2.20396905705113
  H   7.01032396552075      5.58341151955628      1.36864257073912
