28
Coordinates from ORCA-job 24496optt
  C   3.98140188550052      2.47095194553086      1.29055867479293
  C   3.34403473775817      2.07595165960079     -0.03803922172404
  C   4.22148709524442      2.41136819508078     -1.24437677470147
  C   5.40461548209901      1.45441923910097     -1.44223611375647
  C   5.06807770188427      0.10383965717024     -2.12120563644176
  C   3.64853360359160     -0.13208651461251     -2.36494652546245
  N   2.52954445992371     -0.31121222387678     -2.54541856070515
  C   5.87491615568387      0.08674283268117     -3.45917325730058
  O   5.79146874653672     -0.82923471108143     -4.25395628797310
  C   6.70411136060108      1.26469566541655     -3.49117351984946
  C   6.44792390002206      2.00777503393212     -2.36812328839450
  N   7.11109209668959      3.14734263540688     -2.12808173812914
  C   8.08871967629152      3.72648175640422     -3.04013255515422
  O   8.57639923579506      4.82048758454405     -2.70446957903092
  C   8.30754818899259      2.92608788685503     -4.16240184561747
  F   9.20978382903685      3.39166227109673     -5.06330455117663
  C   7.67543089835499      1.70079545237089     -4.43796425840936
  H   3.33429276990413      2.21879045433544      2.13207096874043
  H   4.17099555885013      3.54617888830338      1.32299582007801
  H   4.93584179892260      1.96536411553070      1.44772627735557
  H   2.38808857037344      2.59389860875539     -0.14330126622131
  H   3.10702559661378      1.00917867069534     -0.03884006691435
  H   4.61058727340458      3.42761169222084     -1.12718841857820
  H   3.62589064124154      2.41441194979547     -2.16023299478501
  H   5.86162111849073      1.26233050831507     -0.46369328391678
  H   5.42313518791453     -0.73841568202609     -1.51907656730343
  H   6.93353518957080      3.71610003651321     -1.31431845550049
  H   7.89889724070731      1.13848239194054     -5.33069697392050
