29
Coordinates from ORCA-job 24498optt
  C   4.09351983054954     -0.35895388884041     -0.88203580442104
  C   2.86560942155725     -0.23201990833351      0.01002899242120
  N   3.10995321254724      0.59974967951172      1.17528228749497
  C   2.81876874538343      1.98986268568050      1.08020551503317
  O   2.55339853616239      2.43535627252148     -0.05274212754661
  C   2.86049643519370      2.72423086053101      2.28831627341883
  C   2.65210910118780      4.20281555876201      2.20171839476581
  O   1.39552844504726      4.68398913712248      2.71748294456373
  C   0.29913430069734      4.05315972360850      2.10716625847009
  C   3.69708092853041      4.96119243643200      2.90390099822622
  C   4.58628648329432      5.55578965046969      3.44706047037956
  C   3.15194617364529      2.07900680324113      3.51847226807946
  F   2.59174080499808      2.59814852313477      4.67389353854572
  C   3.43524795829260      0.70349156614058      3.53698563027974
  O   3.81539555651838      0.03214097454459      4.69657728688030
  C   3.46874344564243      0.01972994059795      2.37296631298225
  O   4.01650949294498     -1.23630877717720      2.27239870446854
  H   3.86812261358998     -0.96868269078530     -1.76070975354066
  H   4.91329645223554     -0.82415059705118     -0.33338579169460
  H   4.40116990088130      0.63299118049368     -1.21195619850661
  H   2.54221842906932     -1.21479190952751      0.35490221492590
  H   2.05626084594846      0.23859001394581     -0.54626268926514
  H   2.69674371111069      4.45714534269084      1.13581822184417
  H   -0.59743223203459      4.55787624150053      2.46835928771605
  H   0.24988366170318      2.99191945883758      2.36993660866913
  H   0.35260035756218      4.12760857774327      1.01444643736942
  H   5.37110117248760      6.07196443718244      3.94269682491307
  H   4.11958148248885      0.71070993765905      5.31288412603649
  H   4.26898473276499     -1.47756123063655      3.17359276749078
