35
Coordinates from ORCA-job 24494optt
  C   1.16485823507391      0.11230188982652     -0.44122096382699
  C   2.55648467993208     -0.13144504510071      0.13209208115282
  C   2.99926000668070      0.86149855500761      1.22514648218366
  C   2.12856862200415      0.75279579461148      2.47879766731629
  N   0.88536199451438      1.49283857761749      2.36190631818860
  C   -0.00135497424560      1.21051432103997      3.46972621009154
  C   1.10582978411807      2.93002892860979      2.18515785321811
  C   1.68987259893128      3.68422903300054      3.36892231903413
  O   1.34602332887922      4.85887668284212      3.62225428647163
  C   2.09135000541430      3.22214303242073      1.10269348571505
  C   2.08300483909862      4.51455790311471      0.52196028013966
  C   3.07901244667148      4.84578315483137     -0.35421183152306
  F   3.08775543836451      6.09179916513673     -0.89935337672587
  C   4.09124169446423      3.97289549782540     -0.72291674552473
  C   4.07326424167568      2.66828757536737     -0.19264777514423
  C   5.15859715219345      1.73214379635509     -0.66691662993883
  C   3.08164351734314      2.28613111950305      0.70506083767244
  H   0.97276580623823     -0.56345306952408     -1.27844114638381
  H   1.07745230351336      1.14037436795046     -0.79728158762460
  H   0.39460239023407     -0.03335637285515      0.31477178724603
  H   3.28508300148460     -0.09132963826996     -0.68092392456405
  H   2.61127355659820     -1.14496255087458      0.54768000742908
  H   4.00143688738225      0.54624444069132      1.53475766270600
  H   2.70417357534422      1.07511131446687      3.36248234247718
  H   1.87547992677624     -0.30199062316167      2.64045247481329
  H   -0.28999736708474      0.15555843553591      3.44248930085028
  H   -0.90194653006236      1.82021933928896      3.37748067513600
  H   0.44734912897165      1.42533935790442      4.45141329941182
  H   0.14292085359321      3.40191649812012      1.95863073411272
  H   2.61218033383272      3.25968025622004      3.80191325325345
  H   1.33782118466198      5.24329581910923      0.81216058794788
  H   4.85873860081150      4.29211683588543     -1.41548447620531
  H   6.09413859082783      2.28178222928822     -0.78940802808389
  H   4.91303729493293      1.29411021724084     -1.63926695262733
  H   5.34071685083041      0.91096316097430      0.02512349160501
