26
Coordinates from ORCA-job 24513optt
  C   0.80446172180874     -0.00116339082363      0.08549019771140
  C   2.32990168874925     -0.09838382736241      0.08500037732539
  C   2.90662285817171      0.10065638705828      1.45983067950301
  N   2.22073728553534      0.64896876330021      2.42262564176967
  O   3.08115876351120      0.68555273701399      3.52470933635323
  C   4.25040687387196      0.14843322636232      3.16985221252144
  N   5.22187551976236      0.13760490745920      4.15232738114983
  C   4.22557703322839     -0.24384158121408      1.87541769050205
  C   2.82953425549019     -1.39321392274865     -0.52110431969075
  C   3.59501726885084     -1.34768425943411     -1.67845329895162
  N   4.06300153153153     -2.49355101303126     -2.30196300398357
  C   3.78220796458042     -3.60772757407674     -1.73499902109335
  F   4.24268488437292     -4.71862431819126     -2.34950062017578
  C   3.04941410448317     -3.81308825601212     -0.54607469405294
  C   2.53773731578264     -2.60939642063225      0.07085589300095
  C   2.85176710013117     -5.09167433532158     -0.00725221440484
  N   2.66911233273745     -6.13159627198715      0.47561843563238
  H   0.47089186874794      0.96306280389883      0.46981134936461
  H   0.37367455507442     -0.78201207286679      0.71176165291650
  H   0.43738862070235     -0.13489327759074     -0.93222206173229
  H   2.72597388816398      0.71464592238110     -0.53370837373006
  H   4.83472965890937      0.08798264557689      5.08392522818111
  H   5.92609196456185     -0.56812869028437      4.00105623367467
  H   4.97945749776651     -0.74489080950612      1.29408522620637
  H   3.83976255241849     -0.40695154789737     -2.15552527302113
  H   1.95981089105573     -2.67408582407013      0.98343534502372
