27
Coordinates from ORCA-job 24515optt
  C   0.73200336687827     -0.05975328959839      0.12593105578657
  C   2.21879150095848      0.11320419256416      0.27883678339798
  C   2.84153734086822      1.36188396428624     -0.04180614373195
  C   2.11513100730343      2.39923657353499     -0.74052757512002
  O   0.99900409563480      2.32686409208723     -1.26172950590022
  C   4.18275406616164      1.79660630255698      0.32608622894479
  O   4.76026603889157      2.75001125339910     -0.21592931063730
  C   4.98869216326826      1.12020128613546      1.40488869156635
  C   4.41139567882536      0.26689308189789      2.49575367982565
  C   5.15571232943297     -0.37487775034870      1.36544806170674
  C   4.48061807667009     -1.13636266866660      0.24442564798646
  C   2.95526640528551     -1.20667545463645      0.30533248045184
  C   2.48230356734655     -2.14924784611339      1.43835861350480
  F   1.87508463601734     -1.54758224988024      2.47032176310490
  F   1.59602381746039     -3.06160134084364      0.97499626264171
  F   3.48564114442566     -2.87207497250207      1.97845063486244
  H   0.45183971893235     -0.27776781805987     -0.91415539284267
  H   0.19265696821385      0.84355056732151      0.39775631241927
  H   0.36171368792687     -0.88414780468315      0.74028901902874
  H   2.65681797363609      3.35686779856654     -0.77354893459290
  H   5.87084073669994      1.70045505030211      1.63911725884131
  H   3.33686991289411      0.18494088033107      2.53123610702200
  H   4.90603894706290      0.30016559831857      3.45751227150665
  H   6.15016041626328     -0.73105162887590      1.60620577236005
  H   4.87757657611969     -2.15160227681712      0.20836219591555
  H   4.73380262654219     -0.66508049755556     -0.70889215411458
  H   2.64945720028010     -1.76905504272079     -0.59371982393420
