28
Coordinates from ORCA-job 24529optt
  C   3.58611614660945      0.06628005486998      0.87690607627481
  C   2.38531492403765      0.04881853428581     -0.06992482893281
  O   1.75815388271816      1.30932203256178     -0.10813457524866
  C   2.80069779157336     -0.43915003124152     -1.44198847493814
  C   2.78856184110109     -1.74441568315799     -1.82385296790489
  O   2.35659451992662     -2.77008769519255     -1.01497621300163
  C   3.25430204169321     -2.17554308147597     -3.11563378790750
  C   3.20399881208918     -3.62219279402740     -3.50256642993688
  C   3.73118019752054     -1.21176120925255     -3.94267475010685
  F   4.18834820578978     -1.51730990372551     -5.15611903757882
  N   3.78509573530791      0.09588183731584     -3.62559291059083
  C   4.24038667357094      1.25542136935568     -4.31182401223514
  C   4.79989140918351      1.35145270620971     -5.60720261764267
  O   5.17319217128618      2.45650854659105     -6.09249558597986
  C   3.99297462330928      2.28312199223656     -3.38085402524107
  N   3.44071055969467      1.81840094040181     -2.22826059316264
  C   3.31469439281622      0.51651459024943     -2.36028846689714
  H   3.27727440109908      0.42243809488717      1.86061689237295
  H   4.34447434018913      0.74069621205331      0.47665047547955
  H   4.02241821780352     -0.93106021019023      0.97204396308020
  H   1.62574548713821     -0.62846251373100      0.34359459928872
  H   2.26375185901486      1.85477478116120     -0.74564571631030
  H   2.01832976895406     -2.39749718451746     -0.19588689772307
  H   3.80147177795393     -4.23300564852778     -2.82212466824576
  H   3.57994522820094     -3.76298259282829     -4.51373863516470
  H   2.18179951757305     -4.00406515965315     -3.45559981555162
  H   4.89943548071281      0.42637063412766     -6.18948808876875
  H   4.20213999313261      3.32553138121439     -3.54393890742647
