31
Coordinates from ORCA-job 24524optt
  C   0.96109214913598     -0.16182306803801     -0.04728086608150
  C   2.48470046560479     -0.04168566038637     -0.01550015663230
  C   2.86620538386136      1.45116882114586      0.06383216895528
  N   2.24382286744505      2.14716818734916      1.19728045199476
  C   3.02495437804360     -0.75024838171768      1.25488622659128
  C   2.50512175231483     -2.15842676600467      1.43535373117799
  N   2.98521465726142     -3.07552108044217      0.53919960903691
  N   1.69110949852761     -2.53282856413217      2.34863636025507
  C   3.10127557730157     -0.61362593500258     -1.28863762533106
  C   4.46418131248489     -0.62932079175681     -1.50487643557211
  N   5.08078755665744     -1.11169140918501     -2.58752752263202
  C   4.21014462880032     -1.63095091458024     -3.54800769504410
  C   4.72376830789277     -2.17959787100943     -4.74284971017270
  C   5.16567101829091     -2.64751209349653     -5.76670532173510
  C   2.83760367072314     -1.59090644969344     -3.30531332383066
  F   2.02569552136556     -2.09525532703609     -4.25678836739758
  N   2.23841726092186     -1.12114527724378     -2.25517252575410
  H   0.53812530864064      0.16538248686164      0.90594163062994
  H   0.65888576108341     -1.19316222414657     -0.22028290030652
  H   0.54700371228216      0.43548266401366     -0.86131088885976
  H   2.60984696403300      1.89782884538507     -0.90433933546138
  H   3.94887978211767      1.53306573375090      0.17937934438246
  H   1.24918350830626      2.25298945937883      1.03606653799656
  H   2.62577618301767      3.08111329010766      1.28184479638768
  H   2.73908774168485     -0.16167767242918      2.12775000204180
  H   4.11607551023295     -0.77716397383236      1.20641454193078
  H   3.33682776528447     -2.72560293553459     -0.34069708880116
  H   2.47761599978481     -3.94498631283742      0.50496794674570
  H   1.46722263485690     -1.74549505346552      2.94925009831232
  H   5.12608785502155     -0.22837179888091     -0.73872259037986
  H   5.55061526702041     -3.06019992714122     -6.66579109244659
