29
Coordinates from ORCA-job 24525optt
  C   1.16690604209960      0.36365263982901     -0.55357907007058
  N   2.38723574678102      0.06400964487555      0.17547281366799
  C   3.12064817568023      1.17625205488595      0.61604737362382
  C   4.48468528107906      1.14962434289550      0.61918623484250
  C   5.15129020099774     -0.01121240030001      0.21873670659316
  C   4.44220724914487     -1.23258116672399     -0.00760363025995
  C   5.14888048706017     -2.49417173271274     -0.03811366355226
  N   4.70757285324834     -3.68873424923371     -0.25131429178657
  C   6.62198306683570     -2.41778401143620      0.24319585660746
  F   7.17408006907547     -3.60882647777591      0.50365384230131
  N   7.42080327236136     -1.44861037695690      0.22607891446458
  S   6.85741435702525      0.10427402985063     -0.09490175893311
  C   2.99515647884983     -1.19609655248225     -0.00438463546680
  N   2.28652321385875     -2.27346645529933     -0.16131530565430
  C   0.91464461610497     -2.36594619299936      0.26935963868012
  C   0.68256776086068     -3.77999950259625      0.78881029943857
  N   1.53032728106279     -4.02007240587991      1.95318563942983
  H   1.25917217509476      1.35776534317525     -0.99513555622741
  H   0.27223592714351      0.34038004333916      0.07586770733110
  H   1.03696092263130     -0.35666069419557     -1.35974692065494
  H   2.53617636988646      2.02735389271300      0.93708646533648
  H   5.04304989101295      2.02677355428787      0.92314896790179
  H   3.71143462300617     -3.61332265468369     -0.45425719197512
  H   0.19537335207264     -2.18616892736809     -0.54173858622297
  H   0.68621326074572     -1.65492555043809      1.07556697168270
  H   0.88270192949105     -4.47362752417378     -0.03910321636913
  H   -0.36600730286694     -3.89334149531560      1.08064837460269
  H   2.48108987568400     -3.76091170310295      1.69703857894753
  H   1.55367282397229     -5.00662547217746      2.18010944172146
