29
Coordinates from ORCA-job 24538optt
  C   0.80816580480745     -0.12597437070521     -0.23789841552285
  C   2.31826556552641     -0.37569392217623     -0.22263804669102
  N   3.12032298315261      0.84966836599491     -0.35729464166240
  C   2.68612971804783     -1.20529966042373      0.97911303408190
  C   3.14384890572386     -0.70693026072496      2.13018930748825
  O   3.29007391954894      0.62730998203842      2.38840987542453
  C   4.65450571547705      1.02959919185075      2.43564420302429
  C   4.71718754262260      2.46620225416870      2.69387249859490
  C   4.77636484464050      3.64502199052776      2.89699248538121
  O   3.52685802968363     -1.43401661048441      3.20616098843565
  C   3.44733941687614     -2.83601274770746      3.11623505633522
  C   4.22959713948346     -3.54278415138260      4.13868305726106
  O   3.63492931961609     -3.55484708696844      5.45616551942497
  C   2.92071901347130     -3.38844498607713      1.95471569375053
  F   2.83089615708823     -4.74012463519056      1.93218190862485
  C   2.45036887029028     -2.67211253472159      0.84695098792576
  O   1.88066370201706     -3.15117294815340     -0.17414360397193
  H   0.51112623259910      0.38726861833939     -1.15740691554029
  H   0.52673356656853      0.49530743567227      0.61678270557725
  H   0.28218937166312     -1.07936292035048     -0.17977961457748
  H   2.55164286506671     -1.01071523583080     -1.07994105934643
  H   2.86103043099903      1.50889519578082      0.36906903164371
  H   2.89339802673916      1.28522473055677     -1.24460943411201
  H   5.11994125995185      0.80945356042421      1.46927553716213
  H   5.17748333451718      0.48492800669961      3.22577682743682
  H   4.82244484465608      4.69142685527965      3.07712789318622
  H   5.20581150426289     -3.06534807425582      4.28642415140281
  H   4.38595721679753     -4.57014613688671      3.80225933018005
  H   2.68300469810508     -3.55031990529362      5.30268163908215
