25
Coordinates from ORCA-job 24534optt
  C   1.03891189453233      0.06342035974973      0.36460926193618
  C   2.56171172624170      0.08745658733611      0.33388018809218
  C   3.13624601322819      1.40151239079032     -0.18241389592468
  O   3.10137113515320     -0.27873184147488      1.60581272326975
  C   2.76800911441679      0.43919392853680      2.69845190090324
  O   2.31143546008817      1.54345508496629      2.66719464646103
  C   3.04208965127169     -0.38745029205248      3.93608240315761
  C   3.01890717163471      0.44797391653844      5.13831251616930
  N   3.02741193626918      1.06169611175061      6.10806226904904
  C   1.95679683245692     -1.50545604220865      3.96008051167281
  O   0.83574815502693     -1.23105016904902      3.43884588610653
  C   2.35695463591377     -2.69345487630319      4.56477387174513
  C   2.78676472778673     -3.76037449093795      5.00123600784801
  C   3.06743229310697     -1.05143362103631     -0.55864366690751
  F   2.61100866781773     -2.24035935782561     -0.18181559122091
  F   2.68007872299010     -0.86238760432466     -1.83583231034793
  F   4.40490472162882     -1.11751750687317     -0.57304246773340
  H   0.67509837609569      0.94213238247107      0.89118042012196
  H   0.69558847516540     -0.81848935438262      0.90514413407495
  H   0.65131823159361      0.06662612213861     -0.65445892352748
  H   2.77023015958031      2.21604631836015      0.43509476153878
  H   2.82060860429296      1.55651588663610     -1.21422423611849
  H   4.22512044322400      1.38141140545363     -0.14325191286781
  H   4.02866823951932     -0.84793817886186      3.85580584979296
  H   2.97458461096465     -4.47679715939745      5.77011565270863
