30
Coordinates from ORCA-job 24530optt
  C   1.47470408378535     -1.26648791992117      0.68837299893436
  C   2.89844906329696     -0.74691623775650      0.53101115847959
  C   3.20843547705057      0.39864480508838      1.48486780038775
  C   4.63237136918083      0.92173312576322      1.31743100121135
  N   4.93612357670432      2.01171436061300      2.22374515637173
  C   4.74086780666403      3.37249638398037      1.68804194916511
  O   4.33147213708935      3.44056170225039      0.51320393622056
  C   5.04472477697926      4.39581431016700      2.57961119992691
  C   5.47172900694533      4.16726868825344      3.89795364779296
  C   5.58325823866667      2.83784218129649      4.38447232760184
  C   5.29469173236147      1.77638276060334      3.50669033576864
  N   5.38510059010442      0.50137916342028      3.95628709198322
  C   5.76899275438365      0.07047109562071      5.25601117501374
  O   5.79361055118915     -1.15348559791025      5.45745002177321
  C   6.06092827928575      1.13233133570330      6.12827307260847
  C   5.95186072917125      2.43484371958713      5.67478002153604
  F   6.22537165236356      3.43116280226811      6.54944341433970
  H   1.26073968410512     -2.07802784855685     -0.00919460231534
  H   0.75156972581612     -0.46819396878120      0.50960876323450
  H   1.31012664823075     -1.64078437062458      1.70087477543047
  H   3.05761918570795     -0.40695851651639     -0.49662892682672
  H   3.60750564913803     -1.56394057412502      0.70012150658061
  H   3.04025295860517      0.07581878995917      2.51772509802779
  H   2.53094472898973      1.23621193736021      1.29906367601632
  H   4.74490880940083      1.32928849782480      0.31484600128372
  H   5.36839595700486      0.12019879710497      1.43897155316151
  H   4.92063531225820      5.40063184120525      2.20071848896267
  H   5.69571279250802      4.98796667889759      4.56304775275498
  H   5.15926861468840     -0.26968769770802      3.34799134883233
  H   6.35462810832486      0.91971975493281      7.14420825574193
