36
Coordinates from ORCA-job 24536optt
  C   3.81519803059637      3.18247488777049      0.22390864621104
  C   3.14952341391211      2.58632943102924     -1.00961605420446
  C   3.16771255635948      1.05482181928962     -1.11222530214065
  C   2.36714489685750      0.45035190803905      0.05032668632457
  N   2.56046692187066      0.72952987699323     -2.41563353126498
  C   4.62138941273812      0.51667673747540     -1.10988153964841
  C   4.68935297067424     -1.00444622349295     -1.27899842710711
  N   6.07048903541214     -1.43321570413765     -1.08133217097737
  N   5.45343568763447      1.13724223489703     -2.13090386953667
  C   6.36341685915513      2.17230983606665     -1.75898231557484
  C   7.26630994789221      1.97293854019836     -0.73549462212539
  N   8.17145419014711      2.93062142821251     -0.30576329667665
  C   8.15061281606052      4.08743160659170     -0.98462901311003
  O   9.05990436613681      5.03314288601875     -0.56990852378045
  C   7.30680692632393      4.35548697058820     -2.02101300268113
  F   7.33357307764201      5.57693059302783     -2.63439949653328
  C   6.34150621443181      3.39697219545783     -2.45298076440956
  H   3.70394381337252      4.26729528893891      0.21169004909693
  H   4.88556204979671      2.97137489273603      0.23294839522845
  H   3.37024199612326      2.81009735592167      1.14995930710521
  H   3.63329780084005      2.99869378001246     -1.89638190554281
  H   2.09618046582634      2.89457507814962     -1.04389820419603
  H   1.41136123914670      0.97174151740422      0.15198626036379
  H   2.90497886817624      0.53638728558351      0.99644690086695
  H   2.15468701566403     -0.60600998689446     -0.12088565646278
  H   1.68949973767577      1.23793313355913     -2.52538732005868
  H   2.33893036564968     -0.25839390921450     -2.47263720878493
  H   5.06097746490214      0.75044668426959     -0.13754456519316
  H   4.30289397079256     -1.25736388520592     -2.27688473063574
  H   4.06384137499383     -1.50340446447648     -0.53467347344260
  H   6.66851490967059     -0.80422607005931     -1.61389875187650
  H   6.21686902807970     -2.36824784708186     -1.44010318699185
  H   4.88776176678885      1.40473202322370     -2.92665162551504
  H   7.29527462522545      1.02290704148091     -0.21289770932502
  H   9.51360392005173      4.58382185996364      0.15421436571475
  H   5.65928226337910      3.60704119766380     -3.26487434311557
