33
Coordinates from ORCA-job 24550optt
  C   0.83679791195106     -2.16714430716242      0.30728826426535
  C   2.34123344560931     -1.97220543746602      0.44656096254117
  C   2.97082060328727     -1.41502047523881     -0.83571042152026
  N   4.39079105126729     -1.22729034884962     -0.73329526620997
  C   5.20497117573086     -2.22023585886119     -0.97199684987996
  S   4.51993041597444     -3.79427147764425     -1.61027518414236
  C   6.02136028875213     -4.57039971077263     -2.03076569681547
  F   5.82910485299360     -5.71839794516952     -2.73981144054670
  C   7.25889994464201     -4.15273876506185     -1.71293983295250
  N   7.57228055367904     -3.00498996494283     -1.06570077920832
  C   6.60086662410744     -2.13532753097867     -0.75125125899874
  C   7.04496194093812     -0.80418521817375     -0.18155159748854
  O   8.33592455181702     -0.83572932738309      0.41722024007187
  C   9.32214617798002     -0.62454705062730     -0.58511216162672
  C   8.57996556384944     -0.11770830011212     -1.83321012495876
  C   7.19979443905963      0.25389472378536     -1.28859555741246
  N   7.19811193336722      1.63225657298395     -0.78635440220889
  H   0.38581585910424     -2.52994564443857      1.23295882397008
  H   0.61372367193936     -2.89189627863089     -0.47924122829118
  H   0.34427582123112     -1.22844807424596      0.03998447167358
  H   2.82387723339930     -2.92208675665375      0.68920921258368
  H   2.56595468748569     -1.28422523173309      1.26556365301728
  H   2.50665946914573     -0.44340618360449     -1.04192027771019
  H   2.68866753191108     -2.07323553241424     -1.67380235454172
  H   8.08733309896658     -4.78827470603232     -2.01639362916697
  H   6.33445116162969     -0.46839670092371      0.57412128027642
  H   9.84274122137669     -1.56170996573073     -0.78659183276591
  H   10.03477162909883      0.11187206847569     -0.19851883100699
  H   8.48241634807352     -0.92827442658450     -2.55368727573117
  H   9.06493087386051      0.73661155075542     -2.30444388812184
  H   6.41054046281890      0.15649699423015     -2.03128555262076
  H   7.83477198387561      1.68223623865139      0.00507950736816
  H   6.27510747107710      1.82872307055442     -0.41053097184119
