29
Coordinates from ORCA-job 24565optt
  C   2.90261684018681     -0.62938688932310      1.27867943010106
  C   2.48550708982961     -0.03136636039563     -0.07320969520128
  C   1.02987590072022      0.12684830089832     -0.10903273489656
  C   -0.16301249470419      0.24680526472970     -0.09374569823532
  C   3.21115262096151      1.29417087337415     -0.40525898534172
  C   4.73996669373419      1.09983914430351     -0.36236528056509
  N   5.19427259788018      0.06369622404274     -1.28147823094188
  C   2.83912525881243      2.44538695446709      0.56196642707512
  O   2.90056633909669      3.65769225565179     -0.18056201083651
  C   2.65886145208115      3.30522256222693     -1.49613439922589
  C   2.77087641614880      1.92381030441499     -1.69534260159927
  C   2.45546628558956      1.46770892174868     -2.96263261599686
  F   2.43447912684380      0.13758936964323     -3.20994200904209
  N   2.11387908036296      2.18678945691217     -3.98755243792669
  O   2.18972076252100      3.59101574447829     -3.78079690190583
  C   2.33478466814185      4.19464547923676     -2.52248637796199
  N   2.20123645405860      5.47792452698341     -2.44851650687587
  H   2.32818440941449     -1.53131696568659      1.48925995438444
  H   2.71793623396178      0.08366784315065      2.08468208299010
  H   3.96280937207395     -0.88669065273624      1.28524842906303
  H   2.74256383198035     -0.73402531669825     -0.87150871886503
  H   -1.21753254405492      0.37526697148238     -0.11740468468462
  H   5.05587272147729      0.92420777211084      0.67728110070948
  H   5.17916817029435      2.04825804895641     -0.67628728202241
  H   4.97822533773856     -0.86399074737052     -0.93675257849712
  H   6.19423985289455      0.11102709271139     -1.42258307119912
  H   3.52803945757204      2.53550341052724      1.40497257150199
  H   1.81966446822782      2.30064431899890      0.93828034332117
  H   1.95845359615452      5.82605609116073     -3.37377751732525
