26
Coordinates from ORCA-job 24569optt
  C   1.05250305161434      0.14565718018700     -0.26800045985741
  C   2.53577748978021      0.09586082278448      0.03632052163339
  C   3.35710229153292     -0.13628319729984     -1.22710632294808
  O   2.75708439013647     -1.03720520818299      0.90637015853104
  C   3.74350503477983     -0.69888055323133      1.79871319988099
  C   4.03643070914229      0.68076669645335      1.74954585964440
  C   5.06811824854557      1.24796111055602      2.49784578527513
  O   5.46384388479186      2.39949591049446      2.55348115994785
  O   5.76505680145787      0.31790083504130      3.31314287111394
  C   5.50657868109942     -1.01300100260147      3.32254899013572
  F   5.67365918946326     -1.50956612457588      4.61321219833648
  C   4.40928322414024     -1.55791683268407      2.61544771004427
  O   4.13129644813587     -2.90725905541202      2.70517796993348
  C   3.07801896154601      1.30414338994338      0.82519021457461
  C   3.18317347564027      2.64557436460224      0.22669402138963
  N   2.18993450316949      2.39353186314646      1.28095199563807
  H   0.75172295127986     -0.76545482565082     -0.78709161339897
  H   0.82227764885633      0.99802000623302     -0.91302523068633
  H   0.47754924970818      0.22516605526970      0.65476713527470
  H   3.07881497853981     -1.09242384908746     -1.67357203189893
  H   4.41660179122612     -0.15905311421322     -0.96964576244371
  H   3.18912587389120      0.65928232142237     -1.95529277565942
  H   4.62554235516174     -3.23317341905054      3.46522465185461
  H   2.82113458193796      2.78730411488037     -0.78869046895554
  H   4.01116318853264      3.27426070521708      0.52862307385536
  H   1.27070099589010      2.29729180575840      0.86116714878467
