28
Coordinates from ORCA-job 24576optt
  C   0.25602252828492      0.52061188221823      1.00759700725429
  C   1.63227019934961      0.41253582746503      0.37861320972333
  O   1.70260333361406      1.39418530128482     -0.64783564168538
  C   2.75061276383681      0.59300570451000      1.39664651705695
  C   4.13541121991695      0.21462574911149      0.86777399261650
  N   4.46172424796942      1.02373259226857     -0.30139763524053
  C   5.45110578720296      0.65175743290500     -1.00389741048131
  N   5.79783612594252      1.44913495463755     -2.11420852452703
  C   6.80222676940318      1.12132393210439     -2.93883146616033
  F   6.95430102945274      1.98639566228120     -3.93763015487386
  N   7.56637311761355      0.11351521475526     -2.86150191470452
  C   7.30643386547655     -0.70714865456486     -1.77044741372340
  C   6.32296067775407     -0.50468290416351     -0.87382464567039
  C   5.17591125339465      0.30865149299454      1.98172808671334
  O   5.00711083122722     -0.38606304705746      3.02983006678873
  C   6.28199726958310      1.17739647945862      1.79589008707778
  N   7.21434474791748      1.86109958829272      1.63431617605599
  H   -0.51647519281306      0.44251075159559      0.24079783867955
  H   0.15149552183000      1.48781226814842      1.50340012441402
  H   0.10452549750757     -0.26994186344565      1.74435716828495
  H   1.73438488571443     -0.58676032208598     -0.07272042781943
  H   2.64929417773587      1.55357999416837     -0.79813311650165
  H   2.56935747291254     -0.02852974629231      2.27558031637214
  H   2.76487211521249      1.63883964560827      1.72096870258767
  H   4.07790795251465     -0.85054659922875      0.57553182354241
  H   5.28371261542529      2.30868574536299     -2.24339814166835
  H   7.97204627808980     -1.55495791291518     -1.67878271098833
  H   6.18863290793048     -1.15976916941735     -0.02742191312314
