30
Coordinates from ORCA-job 24582optt
  C   0.73363341097340     -0.74291055077222     -0.21507730536088
  C   2.19720672653999     -0.39676157024229     -0.30294824346652
  C   2.88729560419333      0.33308352835514      0.83331064515735
  C   3.19925805421366     -1.08973335647380      0.53176477702483
  C   2.98194906222449     -2.27160162316108      1.45615497594731
  N   4.20039959895838     -2.10460403156736      2.35130400252565
  C   5.26751338003245     -1.67193255388728      1.42059818290763
  C   4.56993468541248     -1.57979189173770      0.03344086108842
  N   5.32467250350170     -0.81794474040103     -0.93147812597416
  C   4.23049518345475     -2.99556110706310     -0.36321304957446
  C   4.87119574447347     -3.88595187053210     -1.20911712526702
  C   4.38209100205307     -5.24786751453830     -1.12458234939207
  C   3.45635788592678     -5.53475983137746     -0.14881771805268
  F   3.09414859931144     -6.84654681588639     -0.01926508968885
  N   2.86912629775630     -4.73117722106086      0.71635169059334
  C   3.22569415582365     -3.40789341328086      0.50460499685538
  H   0.10668881828525      0.08306364035544     -0.56148759672708
  H   0.45594375066280     -0.96630235255724      0.81616318288842
  H   0.50907082393659     -1.62678898083465     -0.81454255093097
  H   2.54209062614275     -0.12142008447507     -1.29642974036885
  H   2.30425607353385      0.54444277579803      1.72200376156098
  H   3.61831030877938      1.09551476672111      0.58192118147879
  H   2.07147320843918     -2.30389699002402      2.05220331280990
  H   4.42348080027258     -3.02892859060330      2.70327280632487
  H   6.10961614751188     -2.36443705410596      1.37940708691089
  H   5.63604700955952     -0.67921410487655      1.70466897149752
  H   5.35867102039477      0.16326551339458     -0.67534805325265
  H   4.89823838201022     -0.89885422368785     -1.84781013701432
  H   5.68011822649101     -3.59909866999374     -1.86679266772783
  H   4.76902290913079     -6.04939108148404     -1.73726068277292
