26
Coordinates from ORCA-job 24589optt
  C   3.21704010729056      1.74654034708832      0.59730772371032
  C   2.60913504372255      0.74332703082532      1.56106383875755
  O   1.18279062425361      0.77742031793287      1.50911811873001
  C   3.06623450290063     -0.68731263835640      1.28772621197136
  N   4.51739057241317     -0.83333536786611      1.26431075531271
  C   5.15524171662936     -0.65724710415348     -0.05005478487331
  O   4.51658700916647     -1.05954783127483     -1.05576829875259
  C   6.32445652020092      0.10603296709744     -0.04602033317998
  C   7.29983326345904      0.84163997784576     -0.04323575339251
  C   5.14363019077409     -1.08730441930184      2.40915663175435
  N   4.53710342483085     -1.02887642755782      3.56947460572659
  C   5.23102871363981     -1.35208204480571      4.69637082933866
  N   4.79471176455063     -1.36355552130698      5.89675226424192
  C   6.64211758242624     -1.71132758882739      4.45446010185381
  F   7.39472850795606     -2.02769153310705      5.49461069911551
  N   7.21718546731043     -1.74521289379512      3.33308724142046
  O   6.45211479003925     -1.42889585638169      2.23584140410230
  H   2.78523202813188      2.73266784453791      0.77361927990006
  H   3.02179836519736      1.44470014213430     -0.43628093127832
  H   4.30007039342871      1.80336002784266      0.71376470420778
  H   2.86338937200620      1.00329577506261      2.59010675918077
  H   0.92436125294845      0.58464030579990      0.60126240242397
  H   2.72919765029364     -0.99586539000569      0.29650033732226
  H   2.64749777795114     -1.34773701382460      2.04370300416851
  H   8.30099451579112      1.20156484671140     -0.01409969452553
  H   3.81312884268753     -1.08619795231378      5.87622288276325
