32
Coordinates from ORCA-job 24585opt
  C   0.98814451280753      0.15031567841638      0.72764661291381
  C   2.44824838236604      0.20871426521388      0.40649488614904
  C   3.19558513886843      1.33729277826378      0.12709481637665
  C   2.57917055789705      2.70331343124677     -0.01424009535427
  C   2.37289089473267      3.06823470379390     -1.48361446850660
  N   1.37471870489020      2.18299877013780     -2.09618680567248
  C   4.61168553918024      1.28754233028677     -0.05340466404036
  O   5.32881955161210      2.30160732097013     -0.35818396517172
  C   5.24087906890404     -0.01217956264067      0.20171437474952
  C   6.73843477944652     -0.06931496821554      0.26914071316159
  N   7.23681414947262      0.86761434586252      1.28573044665883
  C   4.46251679430322     -1.07983494801375      0.39659202801794
  F   4.96883817122081     -2.31851375027644      0.66439460989433
  N   3.06915481229566     -1.09486047179170      0.39970029596632
  C   2.48772516333508     -2.05431907477043     -0.55368225598876
  C   2.49759076121113     -1.58152718416489     -1.95361177171495
  N   2.49760609317292     -1.17248263478910     -3.02592035253789
  H   0.60259490989418      1.12429661223494      1.01879377089335
  H   0.81313995648108     -0.55064501564411      1.55306138872017
  H   0.36820664440696     -0.18186205780799     -0.11766057779534
  H   3.27374029549187      3.42807215604255      0.41461908985326
  H   1.62268486746082      2.77855841261544      0.50484831473696
  H   3.35160801893240      3.02425093251149     -1.97278660726585
  H   2.00327152028157      4.09592218352012     -1.55336102740486
  H   1.69216222487191      1.22297160106713     -1.98461952711157
  H   1.34302860569347      2.34004731463494     -3.09721532566053
  H   7.11271340353352      0.17735274547771     -0.73329534481688
  H   7.06608299959376     -1.07922387829641      0.51769471801476
  H   6.84831027691958      1.77628643280044      1.03304576932259
  H   8.24403954109951      0.94658581695528      1.20013859930155
  H   1.45222372519814     -2.24975936189649     -0.27667651986774
  H   3.04336993442474     -2.98845492374446     -0.49425112582085
