36
Coordinates from ORCA-job 24584opt
  C   3.24571810322950     -0.90269100694003      0.65873895592130
  C   2.25422851187115     -0.09557538203165     -0.17722022110822
  C   2.88176136110178      0.40789318894255     -1.44538586672502
  C   3.06698832813049      1.71594476944072     -1.68007881048702
  F   2.70384609394286      2.69151287033541     -0.80472462885397
  N   3.55864838245182      2.24020980196131     -2.87158988910828
  C   4.07511347944533      1.28630856273979     -3.81286307564184
  N   4.71545476124921      1.69381820642402     -4.88305880015454
  C   3.85989511098790     -0.07560828883136     -3.49860683828425
  N   3.27314214347616     -0.53044790658479     -2.36545358905408
  C   4.35932606613928     -1.08652322705096     -4.49283278059120
  C   5.90421135849556     -1.22696778531207     -4.62615820150209
  C   6.64567061317804     -0.86141968842140     -3.34658093335555
  C   6.13052436574020     -2.71513607071357     -5.01900338994442
  C   4.73763867690750     -3.33494233886157     -5.18516157437410
  C   3.88012047031751     -2.51574461409144     -4.23003531219352
  N   2.44722471451773     -2.75333352085421     -4.37398977749096
  H   2.77380303216524     -1.32287046509433      1.55027047671257
  H   4.07877532908204     -0.27094011451468      0.97401472363816
  H   3.65097387863268     -1.71606521899929      0.05636768572764
  H   1.86181516956507      0.74088244804378      0.40340013721107
  H   1.40911645855944     -0.73709176281108     -0.44629712089342
  H   4.18629383229044      3.02787496951826     -2.74112138358381
  H   4.68688418006412      2.70989269674326     -4.93534536889979
  H   3.99110341620146     -0.79366787071089     -5.48691176891647
  H   6.24333963223747     -0.55673848289526     -5.41539334939868
  H   6.23645022848338     -1.40998956936593     -2.49317565990122
  H   6.54586047125304      0.20472423206245     -3.13968096079982
  H   7.70917111094461     -1.10396295485572     -3.43437848905622
  H   6.65880057769527     -3.22606353294996     -4.20820976128577
  H   6.74707832641182     -2.82023854985928     -5.91380904317729
  H   4.70655857427746     -4.40479463068370     -4.97145670325364
  H   4.36552620529582     -3.18916805975313     -6.20567431528631
  H   4.14032972324091     -2.77868337228687     -3.20020192072549
  H   2.15074633384421     -2.37986095007067     -5.27241719126230
  H   1.99386097857325     -2.17553638166764     -3.66897525390134
