36
Coordinates from ORCA-job 24591optt
  C   1.13325526882151      0.22857754017138      0.07721395749198
  C   2.63158053249360      0.18525000810333     -0.08061612000196
  C   3.38323497179414      1.38998849191282     -0.10492821198379
  C   2.77512872560077      2.74547558154990     -0.20414838383097
  N   3.21938648279302      3.65052409760383      0.88670775260611
  C   4.80082949659303      1.26164863370204     -0.30310528466072
  C   5.35645862092927      0.02627550713705     -0.42266962610609
  F   6.73135061257867     -0.03403576307615     -0.57163422878589
  C   4.66613580807513     -1.19557553707435     -0.34501484094794
  C   3.24901122410584     -1.04191633340112     -0.18647745937372
  C   5.34592648846465     -2.50157815487226     -0.68746331127168
  C   5.79473246756851     -2.52344483878203     -2.15352650078576
  O   6.51287258135984     -2.72467000196408      0.14193468461821
  C   4.44597861797126     -3.71455266722351     -0.38119508156352
  O   3.45029367647107     -3.84997487064981     -1.37898061320697
  C   5.22040049599420     -5.02546783490166     -0.27844234757651
  N   4.25129921313301     -6.11288980870600     -0.05423562143359
  H   0.64593518560705      0.70849509121322     -0.77630573559140
  H   0.84581139791210      0.80108254965828      0.96833036205597
  H   0.72841125325441     -0.77985425385680      0.16996279051830
  H   1.68380936781894      2.66214303335013     -0.24044437782168
  H   3.09170850123749      3.24484997433825     -1.13610436147443
  H   3.01683449783737      3.19350906306059      1.77215803755624
  H   2.68505925743925      4.51609010044958      0.85889549833182
  H   5.44129500248967      2.13450307856079     -0.28374060855646
  H   2.62696713773581     -1.92798547176013     -0.16267793535009
  H   6.46991523320072     -1.68558328277360     -2.32509299249205
  H   4.92975483929558     -2.42417703275986     -2.80713346126177
  H   6.32328349695583     -3.44942214812286     -2.39607800480424
  H   6.90189823863298     -1.85676030018749      0.29069631320349
  H   3.97765534180395     -3.52652216917272      0.59695170433019
  H   3.13583628599236     -4.76094699291645     -1.30631226812655
  H   5.97498676702012     -4.94373855524951      0.50274481198171
  H   5.72346789193270     -5.22021970908637     -1.22729386114454
  H   3.88611910821945     -6.05695175392774      0.89055427962690
  H   4.69537591086640     -7.01714527034661     -0.14652895416860
