26
Coordinates from ORCA-job 24605optt
  C   1.21540622720031     -0.06849857061404     -0.08573975636084
  C   2.70021608507257      0.10658834100023     -0.08384769887988
  C   3.40878311882972      1.30131481247117     -0.12635212230364
  C   4.78324414881405      0.93510952661246     -0.09334712483962
  C   6.04105083969690      1.58478396147041     -0.08277025213439
  F   6.14037412031154      2.79964909028191     -0.74197830330785
  C   7.23292640286171      0.75262706412795     -0.12646792908047
  C   7.14455123684328     -0.62891371780981     -0.09176116227390
  N   8.19953232297619     -1.53622555025738     -0.11650072196719
  N   5.92480932775109     -1.21812789190775     -0.01485837422757
  C   4.74505573509513     -0.46298923550475     -0.03784030628133
  N   3.52466827021090     -0.98783396841621     -0.02668794491692
  S   8.75868226196213      1.58261762091051     -0.04370212213981
  C   8.96674154922000      2.31034982291304     -1.65274626702481
  O   8.69538846507912      2.66117057216790      0.90662392972989
  O   9.85967196827623      0.63813758907879      0.09464883947509
  H   0.71722015411607      0.89521562290827     -0.20498636066576
  H   0.86417717273573     -0.51812530753177      0.84814240546370
  H   0.89371001417748     -0.72499754833556     -0.89924787152126
  H   2.99978825444473      2.29900513770165     -0.17683123385988
  H   9.09832843504871     -1.08337956257729     -0.00319100273518
  H   8.06966133759345     -2.28579463020337      0.55049317075701
  H   5.85040963333485     -2.20330893478059     -0.21307824767714
  H   8.12646516428024      2.97209587610251     -1.84169775976565
  H   9.00997456734066      1.50578893879713     -2.38345230633967
  H   9.90816318672701      2.85774094139457     -1.61982347712294
