29
Coordinates from ORCA-job 24610optt
  C   1.17573459547711      0.74256164464948     -1.03285940312783
  C   2.60310107770894      0.40224452814584     -0.61866539169069
  C   3.16560515630331      1.39252313413085      0.39267433164388
  C   4.58241645281177      1.04766471266997      0.82745967354187
  C   5.13210900331648      2.05318342649469      1.84717313215362
  O   4.32839888191451      2.92319048149846      2.23609594773905
  C   6.49757225382830      2.01452179640271      2.29214904909382
  C   7.05041702478057      3.07438943297531      3.11006853341309
  N   6.26105779855658      4.05000155642293      3.72515344033989
  N   8.26750149695387      2.87079984599983      3.83089040807489
  S   9.53531400992052      2.24414972819027      2.98682446805452
  O   10.05475354628874      3.26085024707393      2.11342901793841
  O   10.44383743813945      1.68818914079880      3.96260886869014
  C   8.77452446355233      0.98361484325983      2.10841090655759
  C   7.43413469998300      1.02757634826548      1.88343337493461
  F   6.97265119406665     -0.04465047515212      1.19356881745247
  H   0.77864337336624      0.03063443440256     -1.75901749758109
  H   1.13002734967090      1.73885720216784     -1.47810891241644
  H   0.51329519080951      0.74305754231808     -0.16432809595555
  H   3.24576467139168      0.37890291819349     -1.50466548263538
  H   2.63109132633855     -0.60711375125663     -0.19588859085691
  H   2.51717119872515      1.43282935650029      1.27094768651976
  H   3.14790211424958      2.40117222727853     -0.02801600335062
  H   5.24143120829184      1.00694475011260     -0.04334050691309
  H   4.60239719756745      0.04353454613275      1.25879635183998
  H   5.35152314498721      4.11386879065702      3.27957939130963
  H   6.74647561864021      4.93353275351154      3.80834094610459
  H   8.16693720175669      2.35335555358505      4.70758393627674
  H   9.38721131060261      0.16061328457056      1.77770160284900
