29
Coordinates from ORCA-job 24620optt
  C   1.07240923472582      0.15244609670937     -0.20141543848335
  C   2.56541040118442      0.16807850271265     -0.10759591816240
  C   3.33259362629178      1.29785620035618      0.03409832659933
  F   2.70570168755850      2.49473190627067      0.08097718527974
  C   4.71709729606537      1.33645674073950      0.13590691303763
  C   5.38653261041107      0.11750065899061      0.08188067996012
  N   6.71743875480306     -0.01887732478414      0.17973202558460
  C   7.44383625496638     -1.22788207064457      0.12757387222626
  N   8.72576313294437     -1.11547760930396     -0.25022612393481
  C   9.54886507122835     -2.26676816369812      0.01825588844368
  C   10.90783004417794     -2.09465947422122     -0.66108678856669
  C   11.62252000502300     -0.78849642108108     -0.32920918110865
  O   10.83837891549183      0.25852504415266     -0.17922769556207
  O   12.82842354518376     -0.72328342569198     -0.24895877748050
  N   4.65058823649813     -1.01929666968953     -0.05767459418180
  C   3.25514197088643     -1.08396173535815     -0.17655847549504
  O   2.72421769380299     -2.18180479149466     -0.32724642519557
  H   0.65942347728975      1.14948907770255     -0.05951598793604
  H   0.65043481404086     -0.51793384400789      0.55058707980025
  H   0.74518097373570     -0.22904749486801     -1.17190557913836
  H   5.24507473848811      2.26803385618545      0.26080500364675
  H   7.26577339901383      0.82931772225740      0.13812538773728
  H   7.12194535239732     -1.99141441577421      0.84206451545609
  H   9.08616968360112     -3.19263277942646     -0.35536680105137
  H   9.70173917982722     -2.41238652983512      1.10249307023090
  H   10.75371608937684     -2.08851298719656     -1.74457984393245
  H   11.58787474160645     -2.91082361669211     -0.42258330760204
  H   9.84221464184778     -0.08205143705340     -0.23164741225793
  H   5.15370442753154     -1.88612501525583     -0.21370159791354
