29
Coordinates from ORCA-job 24622optt
  C   0.81394457192832      0.22684215532395     -0.08108894345931
  C   2.33317519662651      0.14308254946704     -0.02556378477395
  N   2.88358407124119      1.45528703860706      0.18087539519759
  C   4.21238450964334      1.54447049046828      0.14322968400793
  C   5.22294612021695      0.50676246909963     -0.02424292596833
  C   6.50882197069379      0.79263349038608     -0.17853352922951
  N   7.04815277470135      2.06628336781501     -0.31584998845106
  N   6.17840982862961      3.09203062727498      0.18133228179979
  C   4.91131189422037      2.77858246838623      0.28081706128663
  F   4.15264372354339      3.83978717266473      0.61087159077913
  O   7.29811817768977     -0.34508581337779     -0.19075722819431
  C   6.33447079593301     -1.37766872565004     -0.36942705740919
  O   5.09710966549539     -0.88670033158864      0.08625736069515
  C   6.25176197146706     -1.74647963272867     -1.86507850590044
  C   7.62728548326705     -2.13132313777466     -2.41182912351751
  C   5.29362247784900     -2.83312385698156     -2.04917963030018
  C   4.53819797544990     -3.75388235729473     -2.18519391542455
  H   0.36028890479872     -0.75746942015553     -0.22886886630477
  H   0.50700796520800      0.88439895313824     -0.89675015137333
  H   0.43340712583339      0.65516475493018      0.84835520923285
  H   2.69773100466936     -0.31943556398150     -0.96054221026406
  H   2.61759695099281     -0.56432208823901      0.77201190541226
  H   7.93212437786873      2.15125921123092      0.17347953869376
  H   6.62752944838760     -2.24434653847998      0.22622465631291
  H   5.88001394416454     -0.85111578457784     -2.37303770701783
  H   8.01710638979922     -2.99843110450523     -1.87432388256597
  H   8.31948148309157     -1.30083836975685     -2.28844354988297
  H   7.55877817049854     -2.39091772311121     -3.46759521007374
  H   3.84199302609136     -4.54844430058913     -2.30114847330695
