25
Coordinates from ORCA-job 24638optt
  C   1.54685238995563     -0.21108176010236     -0.32510272529823
  C   2.99155883992434     -0.15147967233361      0.18789723973812
  N   3.09223738221582     -0.47346621255734      1.58390983983280
  C   2.99907172134832      0.52832211607078      2.53215088682968
  N   2.60788709973972      1.73519784953620      2.34242600684755
  N   3.40471204379006      0.06591132103055      3.78088627637345
  N   4.10374463429085     -1.16105238641006      3.77796602466086
  C   4.80113985584338     -1.42800707611645      4.89443882798754
  C   4.82116514533665     -0.69922614859237      6.09791680191155
  O   5.51144743009616     -0.96733178408637      7.10347959656517
  C   3.84519480059771      0.43874190865789      6.10308887768033
  C   3.53968230568131      1.13827491629188      7.29849034859440
  C   3.29770843428067      1.72795187246041      8.31765774142363
  C   3.20249215417862      0.74158593591927      4.95992695963008
  F   2.26638377435924      1.67667409424734      4.93036215764396
  C   3.82990214294038     -1.06124311478203     -0.61033617905764
  N   4.45305367856084     -1.75954810107705     -1.27172718293654
  H   0.92904683358745      0.44367888999221      0.28821699629306
  H   1.16876488161438     -1.22798433233158     -0.23077031583564
  H   1.48674001715073      0.10159776989776     -1.36790027464792
  H   3.39405546759436      0.85452415675624      0.01255729363628
  H   3.64206097797923     -1.26486423555591      1.91145093370378
  H   2.29224414241169      1.87576265445135      1.39017956782109
  H   5.38275356208215     -2.34063132147044      4.84536813591389
  H   3.09610028444024      2.24569266010370      9.22246616468867
