30
Coordinates from ORCA-job 24632optt
  C   2.09663638831254     -0.81448270865637     -0.90847241536827
  C   2.26573491781720      0.18242265415513      0.22380064465287
  O   2.78573661516465     -0.43274024124766      1.40070160209004
  C   4.13678659395131     -0.73145973486728      1.31967546878013
  C   4.52421743721310     -2.01572023169934      1.15467373266015
  C   3.59681827927095     -3.18060724016892      1.05552374333741
  N   5.89016825883926     -2.33290994758240      1.01064465876057
  C   6.84044274482212     -1.32405626145211      1.16166847031133
  F   8.10323173112781     -1.77851915104139      0.96328710236235
  C   6.52003742742655      0.00674407073075      1.25942895472584
  C   7.25000849211585      1.19828712891642      1.31398301929635
  C   6.32180264836195      2.26761769574572      1.51193607570717
  C   6.61975561772603      3.63156548342053      1.69804640566254
  O   5.80936116864373      4.56063503189278      1.91094250324018
  C   4.99375458281644      1.69890339507498      1.55488490642522
  N   3.84059046381511      2.47596370515637      1.69411731043142
  C   5.09635980080482      0.33765108286696      1.39049258040769
  H   1.69119091584110     -0.31350198361780     -1.78982294698627
  H   1.41700917677480     -1.61868913696437     -0.62112432690135
  H   3.06043077953855     -1.25153102591565     -1.17347477278983
  H   1.30088849483562      0.59822095182522      0.52017967200254
  H   2.91179545452548      1.01179379050946     -0.07333989033198
  H   2.57976947287411     -2.87003420186610      1.28051604598830
  H   3.88121984597587     -3.96862622489594      1.76241384228051
  H   3.61822224801505     -3.62172090761766      0.05330724185734
  H   6.15593786437757     -3.21345222688661      1.43792468057306
  H   8.32379908067450      1.29482533181189      1.25900955748829
  H   7.70079983419123      3.87554551470543      1.65432358035457
  H   4.07964542409704      3.41512757728441      1.99612491369450
  H   3.12284824004948      2.03674781038355      2.25162763928729
