21
Coordinates from ORCA-job 2465optt
  Br  0.97122514860652      0.09765110753218      0.06400399205533
  C   2.87496919926170      0.01181524625829      0.08460947164085
  C   3.59520710926358     -1.20076773076943      0.08905868283972
  C   3.00239501455297     -2.51677924399732      0.08990036150450
  C   1.71047855274830     -3.04779863876280      0.09269110052420
  C   1.81298787253655     -4.45218443260244      0.09408649716751
  C   3.14383900824368     -4.78550692920177      0.09195944546010
  N   3.85650154236716     -3.62225669589696      0.08990066438598
  N   5.19412098611663     -3.61964863704756      0.08860918309569
  C   5.74072089147351     -2.43874568182873      0.09036523719405
  C   7.17731764627146     -2.43271260247986      0.08859131076551
  C   8.37564142167466     -2.45342790586943      0.08637391006311
  C   5.03019968311715     -1.17417561769045      0.09310251399267
  N   5.81886368018261     -0.10463157731890      0.09762575833276
  S   5.21823524218475      1.42103349463740      0.10280047117952
  C   3.44032644266038      1.32087142104779      0.09130808575332
  O   2.85116022251514      2.39084655832673      0.08964360039102
  H   0.79750632081380     -2.48866463038660      0.09433117137831
  H   0.99134502993217     -5.14974166806639      0.09649963391139
  H   3.67003275680302     -5.72357425112520      0.09206609748100
  H   9.43792622867420     -2.45760158475853      0.08447281088347
