27
Coordinates from ORCA-job 24654optt
  C   1.32520211008023      0.14960769093194      0.79850047125846
  C   2.57665392379191      0.23651392708144     -0.06070159956206
  O   3.70920095292081      0.63128997612359      0.68899911229912
  C   2.95036468733226     -1.11366912254409     -0.71372647298755
  O   1.94102106957572     -1.41537974325460     -1.68457394602599
  C   1.29577144654828     -2.66661362248044     -1.53592762713655
  C   2.29768067185861     -3.81262098910503     -1.41295480755489
  N   3.12758908454561     -3.97402869668853     -2.62529459635310
  C   3.12798237717173     -3.53601046070944     -0.18765679945703
  C   3.16562234519376     -2.20088710226040      0.28315283562064
  C   3.67864423156371     -4.60937560772302      0.51303181642584
  N   4.11742930098782     -5.51025578721989      1.11043760754770
  C   2.35964634842065      1.32290428293846     -1.13196814548610
  F   1.16994447023653      1.25577570104809     -1.73210597428227
  F   2.40951496848147      2.55441427057384     -0.55459479928797
  F   3.29536492758429      1.32754229010329     -2.08222902629905
  H   1.53845025152241     -0.50386779791520      1.64117920803036
  H   0.50786340342030     -0.28021604377085      0.22065669111238
  H   1.02612145252999      1.13992541366620      1.15377337561609
  H   3.49467353126522      1.44152894048853      1.16222951171817
  H   3.86342802889428     -0.91076913011094     -1.30474137932497
  H   0.68125941986879     -2.77611167586371     -2.43354772837929
  H   0.64211791719198     -2.66774059946600     -0.65545204057346
  H   1.73066732317769     -4.74286049948580     -1.28956900770901
  H   3.84368190690535     -3.25463712097482     -2.61566846583053
  H   2.56545456077262     -3.81811860328024     -3.45902111858816
  H   3.76964928815787     -1.94733989010232      1.14377290520926
