28
Coordinates from ORCA-job 24653optt
  C   1.70441350826668      0.57177062914161     -0.38437986991655
  C   2.69777015407047      0.32848177261019      0.74667713584806
  O   2.33701517429462      1.08493240077415      1.89918586307547
  C   2.74183929582663     -1.13185519022241      1.11881766081222
  C   2.08705204149350     -1.63869638777812      2.24675852421663
  C   2.16191890551484     -2.99868340433723      2.52291990328011
  C   2.80713368087227     -3.88336553443842      1.66501279652114
  C   3.37573263343633     -3.41681089249430      0.43879211556342
  C   3.90590969006116     -4.36335122537661     -0.49269411709571
  C   3.16930025919527     -5.54548020768564     -0.65957105581837
  S   3.64568424211236     -7.08636948920518      0.13284412745198
  C   2.79595001083804     -6.57869378533600      1.61669033595056
  N   1.85148036589478     -7.21419113548865      2.17868512190298
  C   3.17919432151628     -5.23608866489939      2.22192262196731
  N   3.83950334412159     -5.32286473736675      3.30507689361925
  C   3.38328391329111     -2.02089131108204      0.28581473878633
  F   4.01702731030514     -1.51867105545798     -0.80734647134060
  H   1.67909462318615      1.63128300410146     -0.65849082969959
  H   0.70872099132226      0.26165516942556     -0.06432412310599
  H   1.98806790875713     -0.00460865283290     -1.26443990204053
  H   3.69530351717756      0.63370190610577      0.41315892102325
  H   2.13977066999685      1.98028715605851      1.61229931316223
  H   1.57434653374860     -0.95841518453499      2.91104607018330
  H   1.74072861097041     -3.38293332771950      3.44528761685574
  H   4.89022511435653     -4.21205084144635     -0.92409496382222
  H   2.09696801337132     -5.43333836210107     -0.50968859329415
  H   1.69038991708665     -8.09104942957687      1.68191650058396
  H   4.05417524891541     -4.38470321883676      3.64712366532976
