31
Coordinates from ORCA-job 24655optt
  C   0.89531726804153      0.15133266177055      0.06114397479850
  C   2.40723119642325      0.00371321936277      0.15194562491635
  O   2.85250419479542     -0.48067963401979     -1.09435530412041
  C   3.07407819346983      1.32581571195317      0.58962318262820
  N   2.64133837627153      1.70480916976751      1.93131007042012
  C   4.63678480687993      1.31910872104685      0.53820042507318
  C   5.19454888705615      0.16205930552901      1.35471405962758
  N   5.01548763826468      1.08646932143085     -0.88566812830254
  C   5.15039147805805      2.66373337359286      0.96955227022114
  C   5.88819763806933      3.05245216502335      2.04285955406305
  F   6.34223040310610      2.12612368103346      2.93185783498743
  C   6.21832327881358      4.38652483543029      2.28669410012151
  C   5.74543339275661      5.32590875120972      1.35615023016519
  F   6.05063111829624      6.63758748077241      1.55320985044312
  C   4.97370570689557      5.01671089880991      0.23621106809801
  O   4.51361146238225      5.74902941052097     -0.63132068280715
  O   4.67994022632997      3.63819719527001      0.09895089499141
  H   0.46694869762626     -0.78028337724368     -0.31076404125328
  H   0.64711609056878      0.94651396283471     -0.64542921278919
  H   0.44766768220339      0.38068486895957      1.02820714854960
  H   2.63088546286348     -0.74091537021611      0.93515402391068
  H   3.74127710424773     -0.08912604311030     -1.25445988333913
  H   2.75702304139781      2.11451746208433     -0.09885792515247
  H   2.49198822288873      0.89030477229767      2.51558480699154
  H   1.78335127529291      2.23688665737055      1.90960087269903
  H   4.88318624112769     -0.78173104290944      0.90344844828557
  H   4.84532313281110      0.20934653359432      2.38527214803075
  H   6.28388195885263      0.19991545744673      1.37551486665995
  H   6.02178170805193      0.95383924171073     -0.92155463042767
  H   4.83378624347415      1.95297098849459     -1.38861805226367
  H   6.81902787268300      4.67317962018225      3.13582240477352
