34
Coordinates from ORCA-job 24682optt
  C   1.02972739943291      0.62820584713576      3.14317167549241
  C   2.53971699322975      0.57599992088404      2.94642969168177
  C   2.95845891149245      0.15789382724263      1.53155774016605
  N   2.44693100624774      1.13516869480545      0.56692533495761
  C   2.62199624984390      0.67558321657607     -0.80414283491711
  C   4.46523812078087     -0.00484969048708      1.43977068774332
  N   5.14195176544563      1.16403619624981      1.13834242664123
  C   6.45643933353060      1.01500661506158      1.10957136126423
  F   7.14379718994154      2.15215507949229      0.79723177006329
  C   7.16275754826665     -0.12701942694918      1.35318896940012
  C   8.65377342330665     -0.21354816186824      1.30582516538903
  N   6.48941540589203     -1.29066106805219      1.68643577678549
  C   5.15371529082575     -1.17108995859449      1.71304796615361
  N   4.41809891880616     -2.32249693265393      2.08784681455116
  C   4.86304593035403     -3.62241425433840      2.20979091203667
  N   3.78645851413124     -4.48881210481608      2.52629332155761
  N   6.02828529101151     -4.10178035907144      2.06457685809612
  H   0.76901886753780      0.93213688628794      4.15922022199213
  H   0.58348150936880     -0.35452935617583      2.96493626887936
  H   0.57863299297579      1.32733785036719      2.44009455874726
  H   2.99196996043288     -0.12301909265193      3.65559809751776
  H   2.99006458207769      1.55317895784642      3.14511770993711
  H   2.44856298192220     -0.78454940906693      1.29047509818056
  H   3.04344279750890      1.95223192846252      0.68431683066593
  H   1.99761257405963     -0.20590808934446     -0.97113648517206
  H   3.66104224243956      0.41381483467077     -1.03837333459486
  H   2.29172564112274      1.45442259349508     -1.49326283159223
  H   9.10197564636998      0.74591825349483      1.05313439960748
  H   8.97071896924485     -0.95716018605072      0.56754048761658
  H   9.04524167384145     -0.54414376599966      2.27334453198337
  H   3.42012858286696     -2.23752171544563      2.00930113805052
  H   3.22652976231853     -4.13972715372169      3.29356503519328
  H   4.16775280850472     -5.39710206482650      2.75258306159077
  H   6.65729111486764     -3.34675791195794      1.79068157433422
