33
Coordinates from ORCA-job 24686opt
  C   3.08266702983702      2.59550893111816      3.02569870895934
  C   2.58589535035022      2.08052121394114      1.68218821733672
  C   2.89035575837264      0.60848139146509      1.44412571690807
  C   2.40775774570772     -0.34500950950702      2.54679025522275
  C   0.91228191039331     -0.43935551656297      2.71303180925543
  N   0.31388393643308      0.64499295475806      3.22655535756087
  C   -1.03769043998357      0.62465097837588      3.33731263486705
  O   -1.71625041582520      1.56059112333109      3.74379180458101
  N   -1.70527688591354     -0.56375446249606      2.95934709802850
  C   -3.10315958845233     -0.69774214047087      3.33541738738110
  C   -4.04437061482876     -0.18657205216988      2.25787857156241
  O   -4.09518933959451     -1.03202517386610      1.12311817592746
  C   -0.95325551513939     -1.70277692490719      2.64925726343994
  F   -1.64521990308165     -2.51745560462758      1.75945202064417
  N   0.35536667828322     -1.58284309460426      2.36766609706981
  O   2.35071502021916      0.30620260962170      0.16899629349174
  C   2.52879206484255     -1.02477247409474     -0.24530651533758
  H   3.01879385056074      3.68382617319349      3.06919443007460
  H   4.12536379053062      2.31474736320776      3.20489028440994
  H   2.46412970394285      2.19266673304263      3.82762571723049
  H   3.04500537672843      2.63662060939105      0.86021541230648
  H   1.50651040106494      2.21674829975404      1.62020358132858
  H   3.98669616541614      0.48276958642492      1.38950436068636
  H   2.84339607217839      0.00013660775786      3.48795070669540
  H   2.79458300944203     -1.34583921263672      2.35532478116406
  H   -3.26488205474982     -0.12074394059199      4.24683552553122
  H   -3.30334520610874     -1.75462386066323      3.52475582509975
  H   -3.73553131858178      0.82613381661330      1.98194195238357
  H   -5.06064867881444     -0.13890966420608      2.65729560324552
  H   -3.21083003221842     -1.39506550784472      0.98409058873893
  H   2.24200069623060     -1.07131184599917     -1.29570731672431
  H   1.90287401645120     -1.71235831947573      0.32956510046727
  H   3.58158141630721     -1.32843908727188     -0.15400744953693
