30
Coordinates from ORCA-job 24693opt
  C   1.04917433972875      0.15489642061775      0.08970752779968
  C   2.58091365265610      0.04966325863695      0.00600174102693
  C   3.03970126723143     -1.38533739068618     -0.32806032341937
  C   2.69491140673867     -1.78977755900423     -1.75768754405772
  O   3.15435066874659     -3.11428034581261     -2.01191338211495
  C   3.24462925504405     -0.79026728697016     -2.76338445896341
  C   2.76479502341437      0.62752114050099     -2.46745640788622
  C   3.14872874994637      1.03097363762437     -1.03715725701185
  N   3.25284619009961      1.55881406411090     -3.45865540840389
  C   2.68977537531910      2.90493673844228     -3.25677680358172
  O   1.49943290127977      3.00688467535225     -2.81331178463657
  C   3.13535809185658      3.81973028282451     -4.34112896633455
  F   4.45728833971666      3.67286486921011     -4.63793088764391
  F   2.50180855937958      3.65856347131164     -5.54733516488110
  F   2.94998034773020      5.11747563427449     -4.03987153234547
  C   3.12002145581957      0.38776569174095      1.33268464362719
  N   3.53884022721634      0.63047466002708      2.37357445778835
  H   0.59477400803572     -0.12505188167738     -0.85791859211482
  H   0.75802923772337      1.18291291620135      0.30274866931697
  H   0.66160517523662     -0.49885848196308      0.87245565916365
  H   2.60468461054268     -2.10031684136411      0.37385101151780
  H   4.12846196860050     -1.43756184956422     -0.21613100068517
  H   1.61011299788624     -1.85091410374615     -1.87072790722987
  H   4.11030904196567     -3.07665383824162     -2.11917741080569
  H   2.95476077821161     -1.07760321122478     -3.77500227325366
  H   4.34413214947366     -0.81776709335089     -2.71446670670628
  H   1.67665041204172      0.66700791132487     -2.54878852290459
  H   2.77865963099495      2.04036653391896     -0.85523126287748
  H   4.24165423138710      1.04670418144442     -0.95657260983660
  H   4.26660990597628      1.60283379604154     -3.43933750254564
