31
Coordinates from ORCA-job 24692optt
  C   1.96084656203618     -0.27284281145830      0.69544308415585
  C   3.48136741820095     -0.38423316861808      0.72910901604233
  C   3.96565366427896     -0.90469953535011      2.07747465050268
  C   3.95400409531692     -1.28599300112773     -0.39635708733063
  O   5.37202493116071     -1.29564677287230     -0.42725918687698
  C   5.88055437169103     -2.09454220417443     -1.44423340410877
  C   6.04779785954531     -1.50512446409856     -2.72644076899481
  O   6.56069322966719     -0.19994140255702     -2.80687447474305
  N   6.61379197704625     -2.39456840832885     -3.65843540362437
  C   6.90866059225368     -2.20423605035723     -4.97935601438492
  C   6.68052739688644     -0.91316713781090     -5.68322148582110
  N   7.38139793205473     -3.30252613626548     -5.51994151950664
  C   7.38703165269391     -4.25336632521345     -4.52980393607485
  C   6.90623601265320     -3.72844947818538     -3.35135130232842
  N   6.67523844749701     -4.27116536468077     -2.12105682205085
  C   6.17162852986147     -3.43035985945890     -1.25596374932922
  F   5.87827647607542     -3.94826114462918     -0.03511154128293
  H   1.59753633980622      0.38199454402376      1.49002018301919
  H   1.50590990454789     -1.25661284858657      0.84061857119123
  H   1.60911877299499      0.12146052778129     -0.25978089256971
  H   3.91468482015525      0.60679456506065      0.55676331076506
  H   3.53486107308856     -1.89100653908659      2.27212704965603
  H   3.66731686423944     -0.23719058932190      2.88918353228610
  H   5.04976823347753     -1.00904676175509      2.08250421975923
  H   3.57399366251988     -0.93674045368641     -1.36393482449202
  H   3.58883692035375     -2.30945938086424     -0.23507581265563
  H   6.52409428385501      0.14518889357979     -1.90542026957559
  H   7.36440771748807     -0.13481391155118     -5.34025772118352
  H   5.66678298439205     -0.54660698765405     -5.50333433132797
  H   6.82389563003517     -1.07993741680398     -6.74935295633704
  H   7.71806164412661     -5.26390037594873     -4.70168011277863
