31
Coordinates from ORCA-job 24700optt
  C   2.45473816976653     -1.66424003437028     -1.48074996831711
  C   3.58207401794513     -0.81175908982330     -0.91561308584313
  C   4.91722876182215     -1.56459209960988     -0.94455553953067
  C   3.75144488853557      0.47544560142348     -1.71741045548091
  O   3.52144834571168      0.51590877007896     -2.89848202921059
  C   4.19035615130015      1.68298728777887     -0.90040577627572
  N   4.58544985184641      2.87626682858679     -1.57870490245499
  C   3.60673580261460      3.50317913188398     -2.45289231393085
  C   5.94593798539525      3.05281412185501     -1.90127543296094
  C   6.83055058839013      2.09153503813543     -2.15401963333494
  F   6.46722177135513      0.78969144978837     -2.29260786414606
  N   8.19624287767177      2.28661916161710     -2.23184171804774
  C   8.70656000663084      3.64958572461462     -2.32157649972040
  O   9.91040655830428      3.76604838950329     -2.60288066395116
  C   7.78287996741475      4.71790104242709     -2.06879055375005
  O   8.08334803733006      5.91834446010430     -1.95109751039918
  N   6.38245720172643      4.38638846832633     -1.91232273298651
  H   2.36389760319710     -2.59659869852332     -0.92070174580329
  H   2.66013310496049     -1.89902020590842     -2.52514361229331
  H   1.49933740225289     -1.13912720565974     -1.43969698057573
  H   3.36112359395070     -0.53766395723712      0.12118597546327
  H   5.17619860171333     -1.81410842827082     -1.97473254233746
  H   4.83843882038476     -2.48894630699598     -0.36953505193140
  H   5.73107226419060     -0.96635481968196     -0.53559418775291
  H   4.99765534575268      1.36798804481116     -0.23307624656508
  H   3.32479783592715      1.90271813880901     -0.25333694452548
  H   2.64680272829461      3.54581358385820     -1.93098476706316
  H   3.46885089212507      2.96588684138825     -3.39458104611982
  H   3.93276179054297      4.51995754026498     -2.66632017677019
  H   8.66006764447566      1.69898615743545     -2.91538966981305
  H   5.97378138847090      4.94634506339011     -1.17186632357137
