28
Coordinates from ORCA-job 24703optt
  C   1.03814656014181     -0.21691721505508      0.26792940784301
  C   2.54656253169331     -0.12831887277464      0.24008315926970
  C   3.12499830957217      1.12809771041859      0.40780021118957
  C   4.53502038336151      1.27873864333354      0.38825521895082
  C   5.34784061507532      0.19681482299738      0.21541351267628
  C   4.80926759782753     -1.11215419052064      0.04828493550537
  C   3.36275831740150     -1.25087916048811      0.05372347813081
  C   2.88471538030694     -2.59514997587837     -0.12605604908029
  F   1.54608741001638     -2.84114415484890     -0.23792937922799
  C   3.71375597491449     -3.64323321404283     -0.26342446988551
  N   5.09096674303396     -3.49585880568265     -0.34801520980848
  C   5.69246125189324     -2.21121448689105     -0.12159215460667
  N   6.99639493319145     -2.12421083533052     -0.07967657829562
  O   3.33214530526038     -4.94846634942782     -0.45362588902742
  C   2.25471590478135     -5.42123003286141      0.31536355139777
  C   2.40458627406107     -6.91442817104803      0.43077270110076
  O   1.56863444090859     -7.63105714710031      0.91235255328578
  H   0.61898287218416      0.77157334815750      0.45954779340600
  H   0.68455165542845     -0.89509799121970      1.04625383904498
  H   0.63489373077620     -0.58272841398111     -0.67761522958987
  H   2.48456168490570      1.99078776365002      0.54601336981026
  H   4.96929061724547      2.26488571978739      0.51259937436501
  H   6.42528443561733      0.29579694550199      0.20001229716284
  H   5.59876106687029     -4.24938879710823      0.10237902402502
  H   7.40962545034546     -3.02564926490216     -0.30556577619853
  H   1.28633899331655     -5.18749286904379     -0.13262457414571
  H   2.26873801693289     -4.97655310813821      1.31920836254780
  H   3.36291354293640     -7.31252189750279      0.04413252015428
