27
Coordinates from ORCA-job 24728optt
  C   0.75373558563532     -0.33052174599053     -0.15731610603255
  C   2.26607413589817     -0.19224012638615     -0.09328692106844
  N   2.87766222445768     -0.93763313621043     -1.16494197606815
  C   4.15315128192955     -0.92547126329194     -1.29126315075469
  S   5.16560482352324      0.00203052248255     -0.13070350288361
  C   6.75034585927399     -0.16810248478913     -0.81491573319314
  C   7.08696186954593     -1.19932643808613     -1.71268691886000
  C   8.51179338593833     -1.29285945648578     -1.66583574748120
  N   9.25462691003245     -2.17017462271293     -2.48900333409322
  N   9.10470266803815     -0.48109624429715     -0.84835221280608
  C   8.04062685281267      0.26757527757980     -0.15412896792287
  C   8.26647871333183      1.72172456765347     -0.21139064082683
  C   8.42269933921633      2.91053900802871     -0.25442775405908
  C   6.14722793168039     -1.86415832910170     -2.51073303497227
  O   6.55170574045847     -2.72257843077619     -3.49747981480543
  C   4.79930237050799     -1.66098542625935     -2.34403241566242
  F   3.95867971019929     -2.27970939379558     -3.20678883834575
  H   0.26954680864327      0.22402459897796      0.64967522237497
  H   0.47184757810283     -1.38160658565589     -0.08033944366001
  H   0.38347512005471      0.04270620011621     -1.11306994796767
  H   2.62429568988889     -0.54873690061177      0.88395018322492
  H   2.54575740733656      0.87082741082095     -0.14607233814714
  H   8.98186891395055     -3.13353465215346     -2.32850277562770
  H   10.23946585700369     -2.06120795392075     -2.27799293336324
  H   8.06603448357276     -0.01389503555195      0.91487305161315
  H   8.55447191423794      3.96283285283339     -0.31566417547377
  H   7.47385682472888     -2.51142221241623     -3.69656977313776
