32
Coordinates from ORCA-job 24735optt
  C   0.79499739325189      1.40470693870790      1.05771069798876
  C   2.22506114372518      1.79312708373837      1.36337284181007
  O   2.99642845144732      0.61952917626405      1.34695679266529
  C   4.33344315461763      0.75390818833368      1.64022467090482
  C   4.97186997067513      1.96312197434145      1.90922473393570
  N   6.31233008210772      1.99621933999876      2.17589916174623
  C   6.99733005782372      0.89515480361084      2.20185323492048
  O   8.33038116760451      0.96389391366843      2.44856357011671
  C   8.85336559994946      2.23372343359018      2.74335034274096
  C   10.34842463581161      2.09082577396618      2.93678682029216
  N   11.06045658216324      2.01802003726419      1.67247083683455
  C   12.48698477003985      1.85537241244782      1.83925502725729
  C   6.47148517303216     -0.43058774748443      1.98737603229499
  C   7.18755075822549     -1.65771073386924      2.08479366157725
  O   8.38605627335264     -1.83972457133992      2.37527242791901
  C   5.08365771740318     -0.40145811965738      1.67383009553479
  F   4.45604905926298     -1.57022921986938      1.40717690793647
  H   0.15263172679756      2.28686745871713      1.05587220835896
  H   0.42625695064220      0.70290406251628      1.80606518499689
  H   0.73458427479072      0.92396232470375      0.08101343248671
  H   2.29617059352173      2.27604058081679      2.34542651873724
  H   2.60225188069797      2.50383133452701      0.61803467009407
  H   4.45362669429809      2.91003753007528      1.90560678555356
  H   8.38433255868149      2.63062566673858      3.64951394837090
  H   8.62889685941178      2.94230416124101      1.93777398167819
  H   10.53788724452954      1.16608894093439      3.48736702282145
  H   10.70860538841585      2.92887549340102      3.55928111161759
  H   10.85516725489854      2.83887174554279      1.11640962951583
  H   12.68378403243967      0.87840965008282      2.28574885578482
  H   12.94934220163282      2.61831484381929      2.48838792651939
  H   12.98252291817906      1.88351626493875      0.86813229379532
  H   6.55406743056917     -2.53754274176640      1.87124857319350
