34
Coordinates from ORCA-job 24736optt
  C   0.87874456292044     -0.68893488577786     -0.89549741279452
  C   2.00709733761904      0.30298034038058     -0.62143414733658
  C   1.38840435684389      1.58186303623422     -0.05813830522347
  N   2.99052693764823     -0.25037059991918      0.31345394394620
  C   3.34962862622727     -1.64048380905611      0.06691482778264
  C   3.84565768188371     -1.90630503174958     -1.29795774229383
  C   4.22999897145320     -2.07548360956813     -2.42240854381619
  C   4.21129492182260      0.57262350674782      0.41749870500346
  C   5.06347235591615      0.19241873480607      1.58691740850518
  C   4.53942303820580      0.13598062951478      2.88564380331090
  C   5.25698424738344     -0.10463133634317      4.07586659943969
  N   4.76158212105496     -0.22667205103725      5.29721018947128
  C   6.73401085958931     -0.27754713700001      3.97326971724530
  C   7.46308631028566     -0.73988347604465      5.20082031021026
  C   7.39485598093601      0.00440268081405      2.85337917944064
  F   8.75135692869610     -0.08224098833825      2.80510648986679
  S   6.77182408843611      0.57537405761449      1.32570454039108
  H   0.10460906072252     -0.20329387530976     -1.49165298764690
  H   0.43140524002672     -1.01154409379636      0.04821580780713
  H   1.22098340818868     -1.56637105312013     -1.44332284857513
  H   2.49144990573451      0.53788371743908     -1.58586513254502
  H   0.92184430007084      1.36385678559382      0.90462845756353
  H   0.62422733133942      1.95552100669397     -0.74316970606061
  H   2.11582901914558      2.37597715722008      0.09226236367476
  H   2.49986652490666     -2.29316867764223      0.26719193826377
  H   4.13670795220444     -1.88781222660432      0.78312172870899
  H   4.59317354354009     -2.23088285528140     -3.40919593903300
  H   3.88447115678214      1.61696350355614      0.49216592876485
  H   4.79681207310151      0.49678501602782     -0.51591774863817
  H   3.45483285505918      0.17001306834271      2.96220954450568
  H   3.75196874482331     -0.09668710943769      5.24644160045165
  H   7.02759519741730     -1.67523905054497      5.55542941197216
  H   7.31360250910930     -0.01727585313177      6.00462407026633
  H   8.52667185090572     -0.87181552128284      5.01248394737112
