29
Coordinates from ORCA-job 24738optt
  C   1.00172329174594      0.06734579106913     -0.36163913206691
  C   2.50161289127819     -0.03857938537753     -0.12643100558365
  C   2.83789963576952     -1.12966163130977      0.94302385195302
  N   3.54077524326618     -2.32915059314926      0.52393552696511
  C   3.65194544802667     -0.30446872543894      1.96522519980973
  O   2.91328250487820      0.93644854208431      1.93030369372751
  C   3.12089415164986      1.23441800194092      0.53258567437937
  C   2.49361185141731      2.56283186229361      0.17876161517841
  N   2.50557819130586      2.76433972928805     -1.27176229283360
  C   4.62967303308085      1.11807434018948      0.44157173674171
  C   4.96188965554694      0.08966023829982      1.34605422187368
  C   6.28284181438376     -0.32847370471602      1.53345509225657
  O   6.73916349109685     -1.20666510220102      2.24728977902361
  O   7.23544293359186      0.36138953488763      0.75476546240143
  N   6.94595024452074      1.47453448085085     -0.04808670065862
  C   5.68057537542798      1.76226440364290     -0.16866433553399
  F   5.46388424709637      2.84275776029187     -0.96729029712999
  H   0.60344187811950     -0.89554707469474     -0.69414200188722
  H   0.77205471416328      0.81865256663165     -1.11746435928380
  H   0.49178023570173      0.33071415781739      0.56845531059621
  H   3.01080652963457     -0.25778715082690     -1.06631319691479
  H   1.90203497330813     -1.43612245208879      1.42041917467401
  H   4.50490668280054     -2.09527167260742      0.30182887165883
  H   3.11824609717680     -2.72512064776386     -0.30703264893065
  H   3.68600838264548     -0.71532563923170      2.96997349253392
  H   3.02153535592177      3.34421641564618      0.73774888966953
  H   1.45571101612274      2.54896859490892      0.51859939919587
  H   3.46596891143101      2.81191124330465     -1.59372433229229
  H   2.08076121889129      3.65464611625858     -1.49944668952304
