26
Coordinates from ORCA-job 2473optt
  Br  1.21491024476926     -0.16519751167020      0.35440941702126
  C   3.14353591591773     -0.04540493905971      0.18079886637693
  C   3.74971786702440      1.15491258025095      0.52924156215794
  C   3.27104318629781      2.52710157852387      0.93427471751690
  C   4.50160121599801      3.03384695726658      1.71328268089166
  C   5.63502020859440      2.55660503377250      0.78811924590635
  C   5.64894283273659      3.46280797324597     -0.44286405027997
  N   4.29981040811154      3.65132571966585     -0.96793338874452
  C   3.12190605688314      3.40128885437409     -0.29932568247129
  N   1.96842341724360      3.81624652926879     -0.65769801740657
  C   5.15826827397488      1.17734132639668      0.40162133485434
  C   5.83987899317394      0.09496646747474     -0.05891430469274
  Br  7.72902028563501      0.24223420788227     -0.25036657747303
  C   5.12650589547643     -1.11063681433454     -0.38635983970724
  C   5.67896943523407     -2.33563311129995     -0.86138073013171
  O   6.87012479330192     -2.60425312780090     -1.08304244929225
  N   3.75032944999007     -1.10615511883648     -0.22415539040968
  H   2.33087708220552      2.54366424265271      1.47943544134617
  H   4.55862581962288      2.53898584439402      2.68283555554383
  H   4.50259845567932      4.11724288827470      1.85727480549918
  H   6.62412878374081      2.55661721390292      1.24323956130552
  H   6.28159729361846      3.01835530725049     -1.21428120527844
  H   6.08084594799132      4.43199764409996     -0.16160948488723
  H   4.21699418852864      4.21011645417659     -1.80139577901408
  H   2.02908398091608      4.37419792826428     -1.51095331919947
  H   4.89323996733412     -3.09457412813623     -1.02925296943186
