38
Coordinates from ORCA-job 24743opt
  C   1.17942273912530      0.23929173955189     -0.44000904972510
  C   2.51042691242488     -0.11726322559338      0.21470407136883
  C   3.22464809118460     -1.27257118977104     -0.48317325029480
  N   3.38138359612141     -0.95010724848463     -1.90644640049635
  C   4.57851512067730     -1.63188567387737      0.16764730496279
  N   4.60862569501934     -1.59238312807335      1.63521005356225
  C   5.11210890708903     -3.04584138166559     -0.23599355192043
  N   4.53918448946530     -3.71886855381221     -1.39782909102953
  C   6.64783502507908     -2.99726883518610     -0.35404975660662
  C   7.22694241813642     -4.39038834552019     -0.62299346479292
  C   7.13016516979747     -1.99730555641877     -1.38446324498616
  N   6.35809833284908     -1.80547130855587     -2.52910122392368
  C   6.84229993824292     -0.88229747612257     -3.40984870071708
  C   8.00386684251281     -0.17355540017191     -3.26298269576216
  C   8.82583434098262     -0.38650895248610     -2.11548884344437
  C   8.30529501392891     -1.32304560831367     -1.20903451660674
  F   9.03985320182484     -1.57606831976260     -0.08188524876818
  H   0.66983853464999      1.03523981593871      0.10656122506842
  H   0.52295042357160     -0.63378630582284     -0.46066857636442
  H   1.31736676196890      0.56116068041851     -1.47136567555925
  H   2.33085178500120     -0.37785851775812      1.25965562341192
  H   3.17374734120565      0.75741111613862      0.21665348487296
  H   2.55614499912634     -2.14395296125627     -0.39584956647901
  H   4.23590122432405     -1.38739958713105     -2.26144564698167
  H   3.56987819322468      0.04611897032075     -1.98718947809258
  H   5.29251507435105     -0.87674588356324     -0.17681287965749
  H   3.89061875982472     -2.19821797990601      2.02113720089310
  H   4.43250373795762     -0.65619597975428      1.97827822645435
  H   4.88732370094889     -3.68198895993574      0.63101114006342
  H   4.92950925972398     -3.29394980272341     -2.23685797981149
  H   3.53226973325162     -3.62630229943305     -1.42930940241858
  H   7.00855968262793     -2.66466693446585      0.62238801374054
  H   6.97491856575235     -4.71823696036997     -1.63106697198214
  H   6.82770111493612     -5.12594280784861      0.08226555169176
  H   8.31330396153082     -4.36069853278003     -0.52592920809580
  H   6.22935347894508     -0.72027392572185     -4.29382593892093
  H   8.29195866074837      0.53608351870170     -4.03004127660725
  H   9.76527917186733      0.11274180121562     -1.93585025604554
