24
Coordinates from ORCA-job 24757optt
  C   1.00806218631400     -0.03796694322915     -0.25230826740320
  C   2.49504175614697     -0.08726708437146     -0.05219513794582
  C   3.12262434006956     -1.27998995245130      0.12145645134703
  N   4.51402869335534     -1.32078513187592      0.30692089066339
  C   5.23869043881367     -0.09692708926260      0.31268972547512
  C   4.46363570170688      1.05487653404849      0.12567102323765
  N   3.14179458995908      1.10231307089156     -0.05500987379681
  N   6.54686210235330     -0.06309184693973      0.48934420593498
  C   7.26358951459916     -1.21281744878978      0.67176339547002
  N   8.52693649751320     -1.23344909561721      0.93252380888945
  C   6.56695360157401     -2.50903518175206      0.59223409621019
  C   7.29528347646884     -3.74829795687719      0.68576438257832
  O   6.81737314388536     -4.86169926225871      0.87268417591717
  C   8.81756855027935     -3.73341548704795      0.51339515255980
  O   9.32830175245322     -3.94830052798131     -0.55343384072805
  C   5.20450644707947     -2.45841695133303      0.44491003954836
  F   4.45385915880767     -3.54866515195339      0.39833171540800
  H   0.57515081124771     -1.03613306545295     -0.31664506970259
  H   0.77772184592077      0.50889515406215     -1.16783374972560
  H   0.53641301693937      0.49826047399021      0.57338839682417
  H   2.61775516837027     -2.23043855156772      0.12077499729580
  H   5.01337072594956      1.98822430189529      0.13028629097324
  H   8.87385167178752     -0.27691336012382      0.94219393558658
  H   9.40362480840554     -3.70095944600237      1.44609325538281
