36
Coordinates from ORCA-job 24759optt
  C   2.98113057409269      1.36623515964921     -0.33417289001664
  C   2.41631087139684      0.00270387399158      0.03820052701368
  O   0.99659123987385      0.03805657241317     -0.05576634484124
  C   2.95515682411559     -1.15828977413716     -0.81964106739930
  C   2.49354650081543     -2.48963183755027     -0.23359812594820
  O   2.35115393728915     -0.96771165629635     -2.10051674473663
  C   4.49053614893889     -1.12468687734935     -0.95006823643170
  C   5.01785153341734     -2.23041907387503     -1.81571474185102
  C   4.89394434684483     -2.15448756575274     -3.25269042998844
  C   5.37239449567000     -3.27835612885536     -3.97838766348127
  C   5.84771706889995     -4.38669877793481     -3.33122896410763
  C   6.31479168279058     -5.60902706803877     -4.06905794494772
  C   5.48423315739104     -6.83844991624339     -3.72317625978710
  N   5.96433582085521     -8.01562382753037     -4.46096861322560
  N   5.91373836058987     -4.48821493272848     -1.95362733417690
  C   5.50366739355269     -3.40452329490671     -1.31103987502675
  F   5.56467616274349     -3.52254322849799      0.05083687813226
  H   2.42201127150294      2.13660537513907      0.19780961473520
  H   2.87512516413771      1.53077379137186     -1.40803304729182
  H   4.03512038689304      1.45349050801588     -0.06944131345843
  H   2.64726549918795     -0.21591125308813      1.08492774389132
  H   0.79813755894424     -0.16223831309347     -0.98061267733851
  H   1.41232678960105     -2.48301447801365     -0.09764876514171
  H   2.97737545430258     -2.67285290632932      0.72793577416042
  H   2.77069350329310     -3.30184766864426     -0.90588350701753
  H   2.83926445521256     -1.52435410465304     -2.73641309363774
  H   4.92621718265294     -1.17149753316405      0.05120699734764
  H   4.76990992199622     -0.16596069845361     -1.39816174717777
  H   4.75251241088603     -1.19246931682019     -3.73463529127434
  H   5.36281826096023     -3.27276132236819     -5.06381070695149
  H   7.35737102852095     -5.82945259797648     -3.81411089828091
  H   6.26457002336434     -5.42750001585650     -5.14822512383589
  H   4.42784681196454     -6.61215631395688     -3.91807872576442
  H   5.58375538562471     -7.02926992682287     -2.65459324985561
  H   5.87220672525442     -7.85183842520812     -5.45792486046203
  H   5.39369604642289     -8.82507644643515     -4.24768929182614
