26
Coordinates from ORCA-job 24764optt
  C   1.18891423165809     -0.19846481978061      0.08055635755650
  C   2.69986683504367     -0.17697015065935      0.07033072654610
  O   3.11966303770114      0.62494716989593      1.17470133922413
  C   4.46070462463902      0.59481668861353      1.41627840762852
  C   5.13419287099962      1.76728457839924      1.39789394620174
  F   4.52810737998815      2.91938582094087      1.09918402853201
  N   6.47859254487916      1.90630278178676      1.70685814574884
  C   7.12865758088952      3.12100544624066      1.73374813597399
  O   8.32568293349798      3.21742140947304      2.00546729251046
  C   7.16821810651854      0.72917600113471      2.00292840205930
  C   6.53129127618758     -0.48505306508133      2.00537685175502
  C   7.31789863797205     -1.74105218851282      2.31000019162962
  O   6.61712263481605     -2.63804591252116      3.12077973835512
  C   7.72935055179418     -2.39385074267805      1.03030754034891
  N   8.07619806109435     -2.88669160562970      0.05422703607670
  C   5.14608587059703     -0.64484575625737      1.74122738478596
  O   4.53828215664425     -1.76858658315579      1.79723044064355
  H   0.81528878983577     -0.78120416357985     -0.76277114858596
  H   0.78801520646834      0.81366051753474      0.01166994778861
  H   0.82965574544047     -0.65167378423780      1.00462066253134
  H   3.08064826951875      0.27380170315656     -0.85350425803599
  H   3.11460325220047     -1.17920275265991      0.17880752682831
  H   6.48317890223822      3.96615038432817      1.49305330298039
  H   8.21334560807770      0.88128746606970      2.21939355152780
  H   8.24719162276960     -1.47388469465965      2.81970748681820
  H   5.69324326853019     -2.60171374816052      2.76292696257078
