26
Coordinates from ORCA-job 24782optt
  C   1.37468049968151     -0.30220921646207     -1.48361581860251
  C   2.60586151170645     -0.16468695916891     -0.65034341338280
  C   3.03670119531554      1.02923082120662     -0.11042623811409
  O   2.32098535597974      2.20239519941658     -0.33736137175683
  C   2.58928683337570      2.81634770511504     -1.59134953146667
  C   2.36285452785281      4.27877349488227     -1.42214905980590
  C   2.57399310133108      5.01459091045941     -0.30318912692098
  O   3.01628530060244      4.77477805593903      0.91957062946347
  O   2.22975858467107      6.29748674775069     -0.55580604879158
  C   1.81812718887608      6.28385313539451     -1.84787301233550
  N   1.87098701157266      5.13107993131377     -2.40413014895524
  C   4.17721966197781      1.13794097723888      0.67149323256914
  F   4.46731364894720      2.40160801838692      1.14725497673806
  C   5.05527545072182      0.11691281666672      1.04075441665158
  C   4.90859301400161     -1.22403489642507      0.63191187754942
  N   5.64455515382807     -2.26076499062037      0.89045483883548
  S   3.50567439358020     -1.65678395079745     -0.41654347398154
  H   0.77397278294735      0.60556428093943     -1.42028383704192
  H   0.75605919270911     -1.13979314103924     -1.14152089663474
  H   1.60194650807296     -0.49267965047955     -2.54158022418815
  H   1.92790289679467      2.42484504974123     -2.37086802926515
  H   3.62203205640257      2.59576347573389     -1.88218211597827
  H   3.25250695582870      3.82805293139161      0.98246971280022
  H   1.48849085338216      7.22162454511401     -2.26085293056106
  H   5.90050315992923      0.36690890867024      1.67014614687566
  H   6.42443315991140     -1.96980420036822      1.47901944629991
