27
Coordinates from ORCA-job 24789optt
  C   1.22585485117530     -0.66994376026792      0.18487522021993
  C   2.49057212013634      0.17221585262060      0.05508445879274
  N   3.01781878324830      0.03220471515923     -1.27840697626688
  C   4.27143407790502     -0.01449964484026     -1.50274309347482
  N   4.77879206448834     -0.29375118639625     -2.73550774180485
  C   6.05016286966017     -0.58687577881031     -2.84613659292732
  F   6.46219539511001     -0.81756065514424     -4.12705153578153
  C   6.99951947861308     -0.72894791587041     -1.84669649584385
  C   8.41710489142926     -1.09590475671756     -2.11911082394031
  C   9.02314667465770     -2.20992583265103     -1.30638015792584
  O   8.53388568075107     -2.76924200462638     -0.36510315297380
  C   6.52339208325930     -0.44815106921423     -0.55833155316897
  C   7.24544979540586      0.00902732103753      0.65393076405273
  O   6.55058596821902      1.22084026359659      1.02501245850074
  C   5.35020132738468      1.27975057160151      0.37236102138179
  O   4.57040973008842      2.17669463288014      0.55336103913904
  N   5.26123596521567      0.19760405139646     -0.46474006659531
  H   0.78010871376408     -0.55907779429071      1.17682664681632
  H   1.45335616449481     -1.72455565277355      0.02005958467095
  H   0.49536353395552     -0.36665168879036     -0.56628720326854
  H   3.20873991539399     -0.13136907659886      0.82760913530300
  H   2.25546189525827      1.22130344358432      0.25677682859302
  H   9.11124204684733     -0.25151868115798     -1.95624548004677
  H   8.55026515027759     -1.36084544729262     -3.17138701257431
  H   10.05069280133326     -2.48559024206811     -1.63421694485654
  H   8.29719604222530      0.24176724572423      0.47600654781005
  H   7.17681197970218     -0.67999691008980      1.50444112616933
