27
Coordinates from ORCA-job 24791optt
  C   1.15770217094224     -0.06535740162468     -0.16736501820517
  C   2.53025208777906     -0.20908596531018      0.44179128794580
  C   2.75896644697263     -1.40507099777573      1.41930517732715
  N   1.83339702709857     -1.40470840993869      2.53092163928244
  C   4.23277626071473     -1.00824222867320      1.65521679753440
  O   4.72804268330845     -1.06982015444676      0.28291963884458
  C   3.67753626023439     -0.59281820440970     -0.54134348382559
  C   4.20294417839574      0.51732640495301     -1.43612579509471
  F   3.19634077357088      1.12161715742998     -2.09261245372646
  F   4.90058086724990      1.44763969518429     -0.80800258302513
  F   5.01157454776642      0.00184573251688     -2.39278088251680
  C   4.10418667864082      0.43272230251741      2.05984217192423
  C   4.81752101491039      1.29014307194445      2.85208499945428
  N   4.44001322845864      2.63621920324955      2.89633227046633
  C   3.45259556303668      2.98523364323809      2.07675514692547
  N   2.70547092195820      2.25697069539036      1.25105409083591
  C   3.02054700889867      0.91396387780561      1.31984612386710
  H   0.95799318594024     -0.85482868666595     -0.89775471606971
  H   1.06344199864881      0.90422243407555     -0.65519184188734
  H   0.40972590795853     -0.12581592747015      0.62399132396534
  H   2.70370928296057     -2.37082887746733      0.90712710859242
  H   1.85875515320771     -0.48157503645792      2.95822905353885
  H   2.12603688721632     -2.07395113620460      3.23349734783116
  H   4.85610303058614     -1.66512392244947      2.25909535563874
  H   3.35339213029648     -1.38702867563362     -1.22851345555713
  H   5.67208887088337      0.99200640843255      3.44783954233025
  H   3.21530583236534      4.05034499779025      2.08284115360359
