30
Coordinates from ORCA-job 24790optt
  C   0.54158567595933     -0.22707390642784      0.27254911993133
  C   1.98961623851106     -0.05787219989260     -0.17643833761241
  O   2.79948280106306      0.43286684021926      0.89209303188643
  C   2.55317585975286      1.76949253286437      1.31479234278415
  C   3.47031834134402      2.75299416663195      0.61834092043901
  N   4.74715663091720      2.81858862702616      1.18664032660604
  N   3.17494419151231      3.50058320221269     -0.36146165626485
  C   1.89010214046529      3.35887811167366     -0.94065369510475
  C   1.03588171394243      4.44164178885438     -1.06000638018500
  N   -0.19967290449925      4.37987454167211     -1.69520415697041
  C   -0.51166758056196      3.20982114301714     -2.20829818669315
  F   -1.70463618271125      3.16224246534893     -2.86573373091280
  C   0.23176517573152      2.06210747240627     -2.12948109158982
  C   1.49336853172688      2.12161638412356     -1.44925811101668
  C   2.13425355214198      0.76911672551177     -1.47300034794153
  C   1.35445886200844      0.11544882618902     -2.64736098111411
  N   0.04175545348313      0.78281610392691     -2.75643231261907
  H   0.51338897628218     -0.65188889794664      1.27716984672881
  H   0.01704298039963     -0.90963868768636     -0.39933615192514
  H   0.00784137880129      0.72500260953214      0.26423717405048
  H   2.41995917278773     -1.04903364310063     -0.36160608574982
  H   2.77409489225937      1.78732791171647      2.38573355885679
  H   1.51753218637167      2.06873861259822      1.15430575736083
  H   5.07196328227692      1.92912076015382      1.53800237027714
  H   5.41193054826028      3.25609363835524      0.56399463972516
  H   1.34863372936572      5.41046104342745     -0.69198256782994
  H   3.20722254700890      0.80688016702862     -1.69449952813653
  H   1.22505418444397     -0.96442452901957     -2.53492731660266
  H   1.91082310281711      0.29133151161914     -3.57140725787276
  H   -0.66737548186186      0.24388667796433     -2.27277119250472
