27
Coordinates from ORCA-job 24793optt
  C   0.95437510658282     -0.97214348381564      0.13386221979513
  C   2.41952992351810     -0.55732402944956      0.19020561312605
  C   3.09249472629688     -0.61492148248505     -1.18009906734431
  C   2.61943882861427      0.46088077602206     -2.12245308382392
  O   1.92387957526819      1.40004107237241     -1.82070262119208
  C   4.58535989247067     -0.52748367008494     -1.14971440877028
  C   5.42217821183501      0.57217517447031     -1.06170727363033
  C   6.75639055527020      0.12473976399000     -1.11183421823909
  C   6.71188081152711     -1.26541258758028     -1.23576609811711
  N   5.37444322560611     -1.64630674373069     -1.22537113495111
  C   4.94692172023020     -2.99107211596380     -1.35483458897753
  F   3.98094442083321     -3.30709158948864     -0.37498858266336
  C   6.03389471921496     -3.87326518815021     -1.44928129059887
  F   5.73886267893960     -5.19380789886377     -1.47403097261760
  N   7.29486802753515     -3.56692459001343     -1.58786703796672
  C   7.64639923686433     -2.28675628466446     -1.45766955704584
  O   8.97998350743735     -1.96750523450848     -1.55067520390130
  H   0.48891252769396     -0.91753807768512      1.11969304237638
  H   0.86773511571469     -2.00186838607629     -0.22041659316131
  H   0.39152128951374     -0.32529480014795     -0.54055200264270
  H   2.97128850646004     -1.22122703881147      0.85622477559469
  H   2.51347244058543      0.45964743349369      0.57770651707174
  H   2.85458278162856     -1.57167418023936     -1.66750481602862
  H   2.99336672505706      0.35076835191179     -3.15821110568585
  H   5.08183750315906      1.59326251912150     -0.97393585587054
  H   7.65486207182297      0.71784644591725     -1.09495209550973
  H   9.42657587032001     -2.80774415553979     -1.70412455922570
