26
Coordinates from ORCA-job 24800optt
  C   0.80338360191840      0.27687518993006     -0.02904598440413
  C   2.29114264454452      0.10810204034662     -0.04402506790784
  C   3.15341064441248      1.13996127908986      0.19495401705478
  C   4.55065708239208      0.95155150857805      0.17510847566739
  C   5.53923570382447      1.90270110746966      0.41813415726830
  F   5.17501723423830      3.16591195008116      0.69413189116420
  N   6.82145672824760      1.68615489971902      0.40335853139595
  N   7.34389778236641      0.53360711530034      0.15974553459856
  O   6.40501506218777     -0.55061000305156     -0.10864129845596
  C   5.06657382556799     -0.33876024440082     -0.10900838861508
  C   4.22683358032309     -1.38334183255792     -0.38408878866301
  O   4.76618923026489     -2.59506833250751     -0.72502488524749
  C   4.50347908015375     -3.66975280524052      0.16615428420737
  C   5.82256979978870     -4.37940860933379      0.37091466101129
  O   6.78685242941438     -3.53005243348121      0.94931760354935
  C   2.79246192858894     -1.23021668059161     -0.34401336752361
  O   2.02933779495724     -2.19325880459822     -0.54744507074158
  H   0.52752800957633      1.30314800799524      0.21717690752450
  H   0.34619384367455     -0.40262557722464      0.69372568102600
  H   0.37662570370978      0.01402870965851     -1.00000404154453
  H   2.77186996478673      2.13173922711078      0.41150668472805
  H   3.74613591942445     -4.33024354013006     -0.26208797995959
  H   4.13032538493052     -3.28088348702706      1.11732273514011
  H   6.17330126988887     -4.76238717550741     -0.59612721738353
  H   5.68886403903173     -5.22796262014910      1.04613214294384
  H   6.75164171178593     -2.68020888947782      0.48282878316664
