26
Coordinates from ORCA-job 24801optt
  C   1.07663191488543     -0.01650391836123     -1.30187427815117
  C   2.02085450785919      0.12428171038242     -0.13875334529385
  C   3.34164851359046     -0.66151222751913     -0.04282955819202
  C   3.91674268695615     -1.25864530462206     -1.26395085138440
  C   4.20620967996801     -0.22880655938201     -2.21221343896175
  C   3.86453001163610      1.13660671020248     -1.65466837321586
  C   5.01563479299910      2.13077447467578     -1.54039927619739
  N   6.23763260849220      1.55444777781129     -1.41222132398361
  O   4.84676572822900      3.33888279096180     -1.48132970997515
  C   3.33959951245063      0.83219008884029     -0.22369503777605
  N   3.68824898036824      1.68545573285948      0.88617052104749
  C   4.17241601482358     -0.44252063080528     -3.63528187353598
  F   2.90789145751197     -0.38435313914937     -4.24883096698464
  F   4.87241056850710      0.47944923410909     -4.35969816929827
  F   4.63398963016318     -1.65848261924233     -4.01653504998411
  H   0.31166463034656     -0.76604192161659     -1.08304523276732
  H   1.59994710362015     -0.33160542442568     -2.20389489480671
  H   0.56707512825834      0.92720628040194     -1.51728277847233
  H   1.54692732673650      0.28208049753241      0.82490161937594
  H   3.57014772655262     -1.05624576678864      0.94108793400371
  H   3.82307492358004     -2.30511114709424     -1.52117894968181
  H   3.09534848633940      1.67383109473080     -2.22763764538456
  H   6.28742716292249      0.58224245484069     -1.69636197824717
  H   7.04560651610862      2.15021971507550     -1.46861133995695
  H   3.44257219859968      2.64606027201088      0.66323959665940
  H   4.69700218849511      1.68009982457170      1.00889440116462
