32
Coordinates from ORCA-job 24808opt
  C   2.68437085797449     -1.80512744164215      1.04652580032088
  C   3.83238060128817     -1.04943343661999      0.41603627210696
  N   3.92913090360381      0.23276785406043      0.79863831898793
  C   5.04651706206969      0.90778647688008      0.43140945837287
  C   5.99698576808517      0.44387099882785     -0.44396235598967
  C   7.25874818828453      1.19555583892784     -0.79262034150102
  N   8.48069298858099      0.39436445775311     -0.89283961416954
  C   8.83332231412771     -0.44740119824767      0.25290843246988
  C   8.38292318121221     -1.91837177049251      0.19203378550072
  C   7.04606017126754     -2.17201589553152      0.87377025498705
  O   6.77127063009163     -1.56016569319647      1.90406126565734
  C   6.20845139354204     -3.39091378234631      0.49531632185265
  C   5.09121406571937     -3.11676149344361     -0.55349050234835
  O   4.04494753278331     -4.06209371680311     -0.34239601990198
  C   4.72585821185306     -1.65966530416305     -0.45888154821279
  C   5.81122466792282     -0.86155511118147     -0.90064618303944
  F   6.42737852762968     -1.22482641531858     -2.10064164365327
  H   2.16678741564086     -1.13008764661859      1.72524225961482
  H   3.04734241181836     -2.67127899611846      1.60104315156608
  H   1.97027683283261     -2.16653195162328      0.30166093380012
  H   5.18050047464926      1.88459541970429      0.89211755362764
  H   7.41314351568368      1.98108941261875     -0.04637968180187
  H   7.14860279457787      1.69889880613189     -1.75798253044688
  H   8.40835435586096     -0.18647072173342     -1.71810599602852
  H   8.40919645484105     -0.00959666037048      1.16006924297354
  H   9.92252113609048     -0.42573669458851      0.35820973292754
  H   8.36833539029795     -2.27641589294065     -0.84131007229208
  H   9.12991566874966     -2.52599787749773      0.72696873910077
  H   5.70441879133581     -3.71347974830198      1.40820741704527
  H   6.84957857223855     -4.20504398063720      0.14396187717768
  H   5.51590109463333     -3.29180175186688     -1.54565077694676
  H   3.26964802471311     -3.71715608362060     -0.79527355175761
