27
Coordinates from ORCA-job 24806optt
  C   0.61792567290476     -0.16987368868130     -1.37037081372313
  C   1.32511220873742     -1.32584021504215     -0.69292106399313
  O   0.57826742412134     -1.55290265074845      0.50677906216221
  C   2.82128357985914     -1.10059566556651     -0.42610674724695
  C   3.36664207627476     -2.50629847848618     -0.03219058113258
  C   2.33568755379830     -3.51734900068379     -0.59586825218615
  C   1.37970516509985     -2.67123282045247     -1.45338245737085
  S   2.04220020210544     -2.49953998127195     -3.11184321149648
  O   1.14987985688273     -1.66709477348448     -3.88580957414251
  O   2.28695848419543     -3.81682542427503     -3.65893792967276
  N   3.44620452417349     -1.81180270955759     -2.71827170777126
  C   3.57047967358235     -0.65706406744241     -1.69664905729736
  O   4.76092663964204     -0.25412137334079     -1.59850573971855
  C   3.67184951631033     -2.73378950223927      1.41891981155375
  F   2.58638888984463     -2.65804240127105      2.23669014757944
  F   4.18453336309994     -3.96290599025921      1.63171592275423
  F   4.55606291886869     -1.85777927833875      1.90567197517678
  H   0.63287812019904      0.67753969685313     -0.68352855914227
  H   -0.41995336556766     -0.44329376892647     -1.56831990605651
  H   1.09834831197486      0.11237025388719     -2.30035150851058
  H   1.13926240252371     -1.96026130365592      1.17287238471334
  H   2.99687384267292     -0.33525017160304      0.33005302413012
  H   4.33705992347476     -2.62387108756312     -0.52166879883807
  H   1.76525381189297     -3.98670699120790      0.20781185591584
  H   2.80969285779956     -4.30421220007277     -1.17896672428136
  H   0.39153711790374     -3.11074222757179     -1.58930308558647
  H   4.08693922762536     -1.69051417899785     -3.49351846581866
