36
Coordinates from ORCA-job 24819optt
  C   2.56620137009718      2.54816324808849     -0.27488695148676
  C   2.16691742113296      1.85694907869196      1.02063099090081
  O   0.76312291645818      1.59204390002634      1.02286838577111
  C   2.97008491306860      0.58656705606497      1.33332212874742
  C   2.70372115728094     -0.53459059222698      0.32914343847894
  C   4.47382731516022      0.84638167362608      1.42216768223712
  C   4.92111929938116      1.92794349538573      2.40757304836564
  C   4.37355956649127      1.69368243656834      3.81864655783259
  N   4.78836728935620      0.36967459309531      4.29720604423247
  N   6.37279475112420      1.92467115090062      2.43461297597524
  C   7.09219774910633      3.10479116820387      2.72577507897676
  N   8.33546564633301      3.09677081700911      2.25392002962339
  C   9.09339709516748      4.21250844717088      2.59328475736047
  C   8.51373073133236      5.22683683499015      3.31780059780680
  F   9.26000567756299      6.32369533074748      3.64236020968077
  C   7.20138791035920      5.16285863686795      3.72692658175832
  N   6.45072494630631      4.02712302753225      3.42357549357984
  H   1.93416491177182      3.42288594758587     -0.42689077837831
  H   2.43818015987782      1.88075258411219     -1.13167744007488
  H   3.60630314832504      2.87330379440981     -0.24740271004755
  H   2.31052070755570      2.55845083127477      1.84405990268450
  H   0.57132208919682      1.01519223688195      0.27750315482029
  H   2.62907279031758      0.23843234608740      2.31269026365466
  H   3.04241647158680     -0.26520420638807     -0.67412168508340
  H   1.64608047216992     -0.80462872349246      0.27880757932854
  H   3.24862350219097     -1.43153423745867      0.62710453444254
  H   4.85675749376021      1.10311308627914      0.42767813025706
  H   4.95659676118889     -0.09041562623552      1.71432255446065
  H   4.56472950305935      2.91468315046933      2.08606687521804
  H   3.28018695501529      1.73659785850542      3.80487462597287
  H   4.74478080564225      2.51641172097580      4.43299344268937
  H   5.79760878124432      0.32327834057313      4.17464770788267
  H   4.61689423371731      0.29363528169280      5.29235393338319
  H   6.81577316560420      1.44249260629785      1.66644080487162
  H   10.12421026977188      4.25894952908949      2.26926214268275
  H   6.73415202228507      5.95853317659713      4.29035991139442
