33
Coordinates from ORCA-job 24827optt
  C   4.66153936204571     -4.78331879125119      1.32238695104016
  C   3.29695445556500     -4.23583567960533      1.76281531524867
  C   3.22437823045768     -2.73795630764517      1.77909440434235
  C   3.70264495784378     -2.00648984650974      2.88917417930946
  F   4.36102146233310     -2.68817391461290      3.86886487555951
  C   3.59707294332365     -0.61541723518659      2.99902861637478
  O   4.02965426554771      0.13917261564118      3.88738755401284
  N   2.84708351968779     -0.06172786996536      1.93946204522839
  N   2.63185150421604     -0.66229071496827      0.70537524244027
  C   2.76207504541014     -1.96790661024076      0.69659166884647
  N   2.36637159404521     -2.63160198121850     -0.49471110383268
  C   2.13365737859865     -1.84465250990613     -1.68971728481604
  C   1.05514466675926     -2.46661184659135     -2.54272676146223
  N   -0.20014541172169     -2.49924408344305     -2.00033733445908
  C   -0.59053851434806     -1.79187835161814     -0.79411633805870
  N   1.36599727150906     -2.93278956901625     -3.69616095564413
  C   0.29838436124311     -3.51167598936969     -4.47821273422637
  H   4.68271177178037     -5.87720877108128      1.33995692222474
  H   5.44031121062232     -4.41033569140320      1.98851321290565
  H   4.90714022359391     -4.45231826229898      0.31041099028207
  H   3.09024713140243     -4.61075294360522      2.76930436656044
  H   2.51267411452900     -4.63903171557375      1.11528070601748
  H   2.97004622875297      0.93564838664528      1.86810992004836
  H   2.92154882583924     -3.45398124886331     -0.67538680461074
  H   3.02206052029808     -1.74205378170681     -2.31695396934130
  H   1.83401557301757     -0.84762866430985     -1.36658448657723
  H   -0.94027855921250     -2.84011006414300     -2.58730775508678
  H   -0.70718763000257     -0.71710795195685     -0.96085241760713
  H   0.15159813417292     -1.93890493990822     -0.01241843598402
  H   -1.54202569594089     -2.19405040909169     -0.44779382907096
  H   0.69322223945631     -3.86020529555182     -5.43181580834737
  H   -0.50150725014597     -2.78786330953555     -4.69722632117527
  H   -0.16772393067938     -4.37269665210840     -3.97743463014162
