33
Coordinates from ORCA-job 24823opt
  C   1.08473557964953      0.02445822116196      0.49549695573332
  C   2.60181537768538     -0.06301516052313      0.56532563141340
  O   3.05592275581770      0.39406232881302      1.84354948698756
  C   3.13774328197658     -1.47300720810434      0.29899777687178
  C   2.52398123859620     -2.14636704985913     -0.95632117048616
  N   2.98166351886425     -1.38779278879305     -2.11991033726358
  C   2.85509432573529     -3.62003569054410     -1.06177282509378
  N   4.03788692500583     -4.00079122603881     -1.54381813561568
  C   4.45944680232816     -5.27207916762310     -1.60470124122297
  O   5.55963243228788     -5.61936785080224     -2.06549112237652
  C   3.55146962056573     -6.35887519239647     -1.11754079161657
  C   2.49046137506113     -6.13806192587535     -0.35914708729626
  F   1.74778511347028     -7.15992048148649      0.12361198744756
  S   1.92514565381561     -4.57979344708246      0.17085213495430
  N   4.59182007335637     -1.54786926729646      0.23212769071186
  C   5.38437932267117     -0.35350745151495      0.08121595176149
  C   5.18821584270803     -2.53855729723544      1.09055909652311
  H   0.76810143981232      0.98875454769326      0.89393260638813
  H   0.61876539643944     -0.76790755598633      1.08875067107311
  H   0.73661904036885     -0.06129596126710     -0.53345669924533
  H   3.01929256410648      0.63752510032459     -0.15649728797032
  H   2.97177508552142     -0.33891542804965      2.46226680533722
  H   2.80263031269088     -2.06885285170958      1.16499192875019
  H   1.43510924361055     -2.06637804955910     -0.88230895825951
  H   2.59282754374180     -1.83225622334331     -2.94669157270749
  H   3.98039603430276     -1.58731250930280     -2.17941483507967
  H   3.81858375434771     -7.37602333212570     -1.37228736293641
  H   5.01443305516575      0.25468028329131     -0.74491970281859
  H   6.40203954175665     -0.65646493707083     -0.17531485276520
  H   5.42684500850868      0.27509225622410      0.98439289845879
  H   4.60124406773791     -3.45643909709097      1.05915034808046
  H   5.26698110631533     -2.20091409993949      2.14164331655281
  H   6.18915756597759     -2.78477148688734      0.73072869570899
