26
Coordinates from ORCA-job 2483optt
  Br  1.38364492603873      0.70396027623279      1.28293531936919
  C   3.10736696132980      0.54447554023375      0.52356424075409
  C   3.78002158090218      1.62677415846062      0.11110924228728
  C   3.50894013008230      3.10642590554846      0.18923521315766
  C   4.50601375708061      3.66116180945886     -0.84257138791388
  C   5.68917716670525      2.75209978010010     -0.52677095411822
  C   6.28964883057554      3.13461224879396      0.82468872452952
  N   5.28636863869193      3.56755641768494      1.81945699206730
  C   5.82961831358581      3.95261798771177      3.05458129427645
  N   5.26754206716435      4.34927207078442      4.11120830118042
  C   3.92201799817520      3.60129351578873      1.56464747063684
  O   3.11678120143322      4.01371296791339      2.37406178467594
  N   5.04387827003116      1.45120433233008     -0.49142682327310
  N   5.85760675481424      0.39132278346029     -0.05059746061034
  C   5.15302889489563     -0.67508153817392      0.29682236023396
  C   3.74004015773039     -0.78509416218548      0.47430177720879
  O   3.12444631898918     -1.85543992991403      0.71385435750980
  H   2.46535419147458      3.37187228676437      0.04489435081635
  H   4.72364175463281      4.71977148960691     -0.69728570936615
  H   4.15079707957509      3.49166120826830     -1.85786188805322
  H   6.48175088457970      2.75275781093744     -1.27486965348734
  H   7.00105985904439      3.95443490013620      0.68983739988851
  H   6.81958456948218      2.25958468229842      1.20724723921856
  H   6.91806969675950      3.87376127422160      3.03454500737185
  H   4.25635463731097      4.36766146143122      3.99014865206240
  H   5.74024535891516     -1.55537927789324      0.54024414957732
