23
Coordinates from ORCA-job 24837optt
  C   2.16405300054699     -1.45650824830819      0.61737917541440
  C   2.63581006045561     -0.12927021162587      0.03596620753924
  O   2.54828791590798      0.85806419698900      0.76844275468524
  C   3.17703275363426     -0.06052947623956     -1.29801424800072
  C   3.58447789254648     -1.19187368643716     -2.05411136125121
  N   3.29868378562191     -2.52465665862209     -1.84569832519038
  C   3.90730259813875     -3.36604708812455     -2.79371913160264
  O   3.74560913203679     -4.58965871668189     -2.79939785752540
  C   4.65795839221751     -2.48263083620143     -3.63326285037751
  C   4.44534334257379     -1.19048815366961     -3.18106207823581
  S   5.19182129231530      0.24920466186082     -3.80093637041328
  C   4.26666672168389      1.44852260554897     -2.95792308519991
  C   3.45348569861041      1.24436083436618     -1.90569799943452
  C   2.72738769228329      2.50135288367616     -1.44479776308207
  F   1.44800354352524      2.28432681262500     -1.13379642485721
  F   3.31692210446329      3.13165512196800     -0.42327299778744
  F   2.68602861227200      3.43461463122924     -2.43442043671772
  H   1.75705007505360     -1.24455308210150      1.60316157825766
  H   2.98892522067081     -2.16380342495109      0.72002711174438
  H   1.38171732904586     -1.91127513121298      0.00553415359244
  H   2.63884189799691     -2.89664502839563     -1.19010416506266
  H   5.27042069617674     -2.80038987958059     -4.46001563269668
  H   4.37917024222248      2.43322787388878     -3.38528025379816
