26
Coordinates from ORCA-job 24849optt
  C   1.10327333012009     -0.08730708725241      0.24015332031904
  C   2.59624069014704      0.02701906371838      0.04341786196255
  N   3.22607909180681     -1.11169430144803     -0.25340553411997
  C   4.57174141224770     -1.01071296547676     -0.50037344064646
  C   5.24268276299587      0.17183735909393     -0.39045902796917
  F   6.58916495271580      0.15660774247212     -0.60517964433167
  C   4.64999716340524      1.39779052949068     -0.05842910771026
  C   3.22680037140796      1.26426989236174      0.13038994541493
  N   2.42065651988174      2.40568095386873      0.29623391578602
  C   2.75691677560637      3.69150012977118      0.11406877327273
  C   3.94663695020231      4.40483710240411      0.03040518617024
  C   3.54628718903935      5.77663059904303     -0.15749913714772
  C   2.20675036165400      5.81070646002860     -0.14650955619449
  O   1.69524153262988      4.53887888270408      0.02120034171217
  C   5.29732934965354      3.92694798944772      0.16815834532063
  O   6.26645768826260      4.66992180398844      0.04136116440380
  C   5.48456500912296      2.47935882432337      0.57915803981678
  H   0.83701984031688     -1.14106464256987      0.20204098280986
  H   0.54864402263757      0.43145276725638     -0.55017599398875
  H   0.77578202032305      0.32021589242178      1.20185639080727
  H   5.09982096248507     -1.90512207032806     -0.80743852749607
  H   1.42785546628211      2.24753577862648      0.36503269715466
  H   4.22458600191767      6.60586015724001     -0.26780578622659
  H   1.47474489377044      6.59301071768849     -0.23707740886559
  H   5.28659531099694      2.48862777650926      1.66579358277497
  H   6.54113033037096      2.25421064461659      0.44908261697109
