27
Coordinates from ORCA-job 24844optt
  C   0.88177847687924      0.60938259696591      0.71434772026595
  C   2.25751308676215      0.17503975545697      0.24181108261390
  C   2.35026550978065      0.16479907829438     -1.27521288051809
  O   3.62624735213688     -0.22146870471329     -1.73219319888986
  O   3.20892347014192      1.11060802799819      0.72655660606702
  C   4.28119189166140      0.64659922843284      1.48089859296936
  N   4.90730689412567     -0.46359668420284      1.30617327642451
  N   4.59117443018836      1.54811081846756      2.43539269016447
  C   3.74457132438660      2.58015506424218      2.90315297069179
  C   4.41909611390711      3.11872502570059      3.97718056152578
  O   3.98976687216623      4.15370820438732      4.76760653281194
  N   5.58541263571398      2.55025845658133      4.22717382150645
  C   5.69829938348403      1.53947949283606      3.31650390624519
  C   7.02337424889729      1.02066270587286      2.92091901733606
  F   7.23742845403970     -0.29686949399939      3.14817105950060
  F   7.30394821199338      1.19452538024947      1.60156846444843
  F   8.00121449542391      1.65103775492283      3.59818385446753
  H   0.10861334085476     -0.06306463825601      0.33679598598870
  H   0.67091834943807      1.62072185669163      0.36134898180944
  H   0.84654199658733      0.61303400357327      1.80333665808179
  H   2.49770535589423     -0.81957843024338      0.62593255656378
  H   2.08959447261390      1.16577031080484     -1.64348406090714
  H   1.63423833247075     -0.54938568193544     -1.68720143548566
  H   4.27873025642610      0.29974360721695     -1.24463246791488
  H   4.58832974690059     -0.95316970240619      0.47799438809940
  H   2.81803911231094      2.82413564156953      2.42024429934407
  H   3.12577618481468      4.42063632549178      4.44443101678945
