31
Coordinates from ORCA-job 24845optt
  C   0.94629067379793      1.45677549711789      1.19945837846768
  C   2.31394323499444      1.98370569172366      1.61065891294854
  C   2.28577691397201      2.54560107553368      3.03094506642966
  N   3.26755414473596      0.89311311800766      1.49609883192636
  C   4.59869858180414      1.08610939065451      1.51929734928054
  N   5.07264867279861      2.34179407463491      1.42658998989832
  C   6.38731153124095      2.48068729585711      1.46424598388278
  O   6.85396690713453      3.74456810328981      1.35839347073352
  N   7.29917646145552      1.54432155860044      1.60106531683037
  C   6.79158963947009      0.32124485325495      1.66765467845737
  F   7.71319122772788     -0.63994961025173      1.79116989992524
  C   5.46972218511500     -0.03444254755882      1.61443644791729
  C   4.97714118412078     -1.45717012750665      1.58810655720034
  C   4.26572486471257     -1.97592665004802      2.84175294972974
  O   2.99430349314507     -1.36753030966500      3.02044554575948
  C   3.96569900430343     -3.47125707446559      2.74865261168339
  O   2.80372154043598     -3.81238449494973      3.22159735044559
  H   0.18896187807397      2.23551335629526      1.30172458071887
  H   0.66313935025228      0.61700280698215      1.83877091585534
  H   0.95853987436533      1.10784526747001      0.16693732079857
  H   2.62819265994412      2.77152619449526      0.92390120671809
  H   1.98535060110727      1.76201787425101      3.72965467188155
  H   1.57804571442836      3.37439552809718      3.10639548629294
  H   3.27502233940174      2.90286680443024      3.31479664498055
  H   2.96179122659719     -0.00698987241958      1.89031203925865
  H   6.07109991896360      4.30174253832223      1.27242227477808
  H   5.82242943543259     -2.12149288378154      1.40123203078364
  H   4.28050079575872     -1.58573132181918      0.75320871142198
  H   4.89416756765417     -1.72086648251549      3.71615568771189
  H   2.45850326898736     -2.21012879990263      3.18643105138291
  H   4.82379510806827     -4.15196085413400      2.81848803590064
