29
Coordinates from ORCA-job 24853opt
  C   0.62515168619294     -0.02186229674581      0.69744748398137
  C   2.06497348940997     -0.04296029837201      0.17001813106002
  O   2.05478576306972      0.03709016286703     -1.24790332566303
  C   2.85445663566572     -1.18288065980191      0.76921465370716
  C   3.52188792830409     -0.69066782639714      1.86251447541933
  O   3.42704047801702      0.68479769283441      1.97394106259108
  C   2.85289060381146      1.12618790951172      0.75833284786247
  C   3.65589790224022      2.05229285899459     -0.08215047803168
  C   2.44485641919213      2.54756417713682      0.68588711505182
  C   4.16583688066882     -1.47374367074361      2.81994797478831
  C   4.08943240649282     -2.85741213501025      2.55027303117863
  F   4.67485441880307     -3.68689466838735      3.46637120814505
  C   3.46135628727232     -3.41329445886451      1.47471765568416
  C   2.77666549648368     -2.59570860275187      0.51983913943105
  C   2.53842584469775     -3.09797460472970     -0.85716577565868
  O   1.23576105832135     -2.74970324593133     -1.39398660718924
  H   0.12125198516482     -0.95925046979628      0.45692707631959
  H   0.07010022701544      0.80423627493314      0.24797657915141
  H   0.63236307733432      0.09510001386853      1.78317550607202
  H   1.67566875936371     -0.80231367276084     -1.55769476400566
  H   3.56730913526361      1.94343525273101     -1.15295438249075
  H   4.62891068038089      2.32366813886607      0.30291164826624
  H   1.55231387004828      2.78588703955410      0.12226142718672
  H   2.62094968416045      3.15212433138964      1.56521195138013
  H   4.70515555603819     -1.07382655709630      3.66350167221160
  H   3.48221197796188     -4.49181763677382      1.36376830869986
  H   2.66695605263673     -4.18460065702343     -0.88848074279618
  H   3.23013854015410     -2.64815775683443     -1.58643991083977
  H   0.62639715583447     -2.87731463466644     -0.65146296151304
