33
Coordinates from ORCA-job 24858opt
  C   4.42402179764475     -0.62530669913214      1.51484535355830
  C   3.66386122222288     -1.44327683451478      0.46979870403863
  C   2.19501035880265     -1.03051316274815      0.43519382551788
  C   4.27177888237537     -1.43027812099237     -0.94510174592805
  C   4.10194026678539     -0.14722454697507     -1.78656409039339
  O   4.38105114531169      1.03350009341613     -1.04384757480928
  C   5.12425339463294     -0.37460769350927     -2.92822988151138
  N   5.52441983604802      0.73656737369160     -3.77019552877257
  C   4.83627470676552      1.78862441217954     -3.79917313019841
  N   5.21065545231000      2.87993509805467     -4.57682576107944
  C   6.25653263451172     -1.07273960479057     -2.20835738351479
  C   7.55560632292827     -1.27577927122867     -2.61039010710670
  N   8.41933098628754     -2.07806403042765     -1.86333280108670
  C   7.88241304687347     -2.66853709976803     -0.83817190462345
  F   8.72891775969027     -3.49537675543660     -0.15562450245015
  C   6.58868643027586     -2.57811154619175     -0.34232081437489
  C   5.74628481114351     -1.66000806110802     -1.05020360306161
  H   4.06539014923701     -0.87841860540880      2.51666505857589
  H   4.26765933934799      0.44296179573959      1.36311997703652
  H   5.49447404969205     -0.83107887573527      1.47023318550847
  H   3.71460370561428     -2.49123962777637      0.78796902548636
  H   2.11183973571177      0.02697440026015      0.17052330466795
  H   1.72084234460914     -1.17149078628420      1.40964869564767
  H   1.63761905122322     -1.61300907328195     -0.30327770916602
  H   3.71680201418769     -2.22788615104919     -1.49534509066579
  H   3.08077555660053     -0.02375584628320     -2.15744011889827
  H   5.28166023117122      0.92103010558137     -0.70754439324802
  H   4.67387802954100     -1.12043431092165     -3.60084240513643
  H   3.94214505822307      1.96784318967356     -3.19907195348368
  H   5.90087071527005      2.64708178786883     -5.27673669461964
  H   4.45377280888325      3.44861322576133     -4.92025851094537
  H   7.96648502100166     -0.79921357937462     -3.48971325343222
  H   6.29914313507606     -3.11378119928845      0.55057182846863
