24
Coordinates from ORCA-job 2485optt
  Br  1.37825116820014     -0.14408060622171     -1.03135391650959
  C   2.94579351630461     -0.09906927217332      0.25963097709877
  C   3.61283525888241     -1.31153128900608      0.46461133940182
  C   2.87130469545605     -2.62212382864068      0.61485692288799
  C   3.09470098246201     -3.52475772609860     -0.61325863757411
  C   4.52196354838582     -4.12590966958879     -0.40697653382484
  C   4.98118372802582     -3.66045376639510      0.98857639730249
  N   5.71205936395591     -2.39405791659375      0.91631113784173
  C   7.06997999331057     -2.40638398731476      1.06350095998972
  O   7.71392447185970     -3.41283444719938      1.28954123754596
  C   4.99166879442338     -1.22704989170096      0.55694629633810
  N   5.71805702366457     -0.12973937559555      0.33635791928835
  C   5.08251982897850      1.01849297225508      0.05829413655595
  O   5.57534550546378      2.07866604250807     -0.22559534316852
  O   3.65628558783198      1.02775836991093      0.13693979739184
  C   3.63953570669785     -3.38038349201449      1.66884166903788
  O   3.28530423846641     -3.76390071110477      2.74888221875179
  H   1.83030696178574     -2.45300597317260      0.87485402100919
  H   3.01349166244123     -2.94783086015590     -1.53244356055931
  H   2.34540860094420     -4.31792263335447     -0.64007354539901
  H   5.22789459489228     -3.78294387774816     -1.16161831892650
  H   4.49537117433633     -5.21481085165607     -0.44538191256086
  H   5.59899705741135     -4.37076433749816      1.52738966189914
  H   7.50681653581922     -1.41036287144072      0.95516707618202
