29
Coordinates from ORCA-job 24868optt
  C   3.60532139735680      0.22591995583305     -1.17394039416728
  C   2.72105945434255      0.41467285434525      0.03536971997755
  O   1.51457521551028      0.61949434311863     -0.09741179322456
  N   3.31226583314257      0.35062434537005      1.25407351170701
  C   2.49649178366530      0.33502734263480      2.46434901908408
  C   2.70954299724769      1.56710115894542      3.33314251732355
  C   2.25666458157571      2.89812420070514      2.76045788139444
  N   1.25298015302578      2.84699257970178      1.83177930041096
  N   2.69146436675280      4.02812360978970      3.16779104611994
  C   4.72789942927847      0.21030823550587      1.41909086850769
  C   5.23602272917963     -0.95978849386921      1.93970972613957
  F   4.49460887886896     -2.10672253477623      1.90345872527030
  S   6.89866105466964     -1.11525188105601      2.36912697139197
  C   7.63211278675662      0.15896747660394      1.17074819446797
  N   8.82178094183842     -0.06495035622316      0.75090363518627
  N   6.89261521051703      1.23037200974160      0.89781013898554
  C   5.57133676476218      1.27487580216106      1.07931225479184
  H   2.95929662552479      0.01024381871628     -2.02099987360732
  H   4.33031024098624     -0.57164891973276     -1.01795825715450
  H   4.17099154309507      1.13670479714669     -1.36995667167014
  H   2.77695158014887     -0.55037777357743      3.03865355140722
  H   1.45506638329209      0.22833308236804      2.16865529058163
  H   3.76973814818869      1.64812225513066      3.58271059374658
  H   2.16461691028578      1.42176589222583      4.27057453883997
  H   1.18736617383485      2.04697416852149      1.20945902356186
  H   1.05701339243326      3.73888689634358      1.40444529659881
  H   3.40365734868053      3.89302499619098      3.87947903778444
  H   9.17220318653926     -0.94732127892244      1.10797026174132
  H   5.09338488850001      2.23540141705739      0.89619588480322
