28
Coordinates from ORCA-job 2487optt
  Br  1.21588841345104     -0.70736514661545     -0.49810271975231
  C   3.03076913033917     -0.34103210874476     -0.12423342799228
  C   3.48309906945915      0.95706879988626      0.01918590047161
  C   2.81026422029791      2.29870385058070      0.04143002079488
  C   4.01792585201499      3.22609925081780     -0.22493552360041
  C   3.99576968146379      4.52622710911970      0.57089557500587
  C   2.59346085300333      5.04842584698862      0.81231218283633
  N   2.22531654011991      6.27493424690562      0.68132866403069
  N   1.75613572251372      4.08565852899998      1.24259036921078
  C   2.12588093312226      2.68033817588248      1.39640357937822
  C   0.91899456614735      1.87049797870474      1.78653844964978
  O   1.07310343369865      0.76759118037855      2.41281360371784
  O   5.19406637097527      2.47486619055185      0.16248010645244
  C   4.85724121569011      1.15900138916482      0.14634425594570
  C   5.77336135802582      0.12953505129321      0.22515982481686
  C   5.27664615293475     -1.16889422054374      0.13451347267053
  C   3.92482188139250     -1.40899430857471     -0.05647647746657
  H   2.05131169260950      2.40187326496075     -0.73580826851634
  H   4.11281442791033      3.43314676131893     -1.29610449056232
  H   4.60358128567634      5.29407165577655      0.09476159750504
  H   4.43179636900545      4.30733233358930      1.54912455041681
  H   3.00788789738667      6.83350165795132      0.35704916858613
  H   0.82768026823220      4.33883750561769      1.55127774499381
  H   2.87241281148249      2.54354040684801      2.19070347863059
  H   0.04101115928529      2.04658632395854      1.13225733722094
  H   6.82906592027793      0.33577711815894      0.33511417802567
  H   5.95927429469057     -2.00773041756944      0.18946294618531
  H   3.55341847879343     -2.41859842540629     -0.16008609865565
