29
Coordinates from ORCA-job 24881optt
  C   1.26865793434402     -0.28469701308471      0.13055515232226
  C   2.73495064898706     -0.04887438109890     -0.20373504982042
  C   3.36383491814336     -1.30543086455971     -0.83389955394606
  C   4.84312627195523     -1.44944977229736     -0.63032413105814
  C   5.28809397462759     -2.85314252915752     -0.33003959884193
  C   5.71754608999952     -0.38518032322553     -0.74202618365307
  C   7.19454463782146     -0.64172392764847     -0.53584554803057
  O   7.79558292662882     -1.36223706515910     -1.62079667714289
  C   5.41768141396221      0.94407128938146     -1.13509743376719
  C   4.20421997852451      1.59538143792566     -1.43400159920363
  C   2.88092883386640      1.16706882947814     -1.11855288062106
  O   1.85866219485547      1.73688847900178     -1.52730041825654
  C   4.27861946663379      2.90822011849330     -2.13868059170938
  F   3.75799458609296      2.89152898878952     -3.38813047081904
  F   3.64195159970488      3.91515590020490     -1.50057902909633
  F   5.55164253552183      3.35327702018962     -2.30201026224398
  H   1.17048334585910     -1.08935232221558      0.86336316459562
  H   0.71594430554970     -0.56032709853281     -0.76953608323026
  H   0.80625075837424      0.61993410065059      0.52300747069938
  H   3.29171531534606      0.16512824664766      0.71490643084556
  H   3.10095341460825     -1.32316311213638     -1.90243934687893
  H   2.87566152162497     -2.18584639365376     -0.39879807758864
  H   4.91927110455244     -3.54570993711552     -1.09736383260814
  H   4.86596114169409     -3.20763160654124      0.62053478895417
  H   6.36874590785084     -2.96933068241494     -0.29301928893411
  H   7.38189964940713     -1.23971075055561      0.35819848734290
  H   7.71551949513613      0.31072813305319     -0.40886217112763
  H   7.27890640238517     -1.14153781551813     -2.40243572456069
  H   6.29864962594261      1.55796305109944     -1.27509154162124
