25
Coordinates from ORCA-job 24893optt
  C   1.14011416172931     -0.13964197287721      1.35964844988155
  C   2.41545478779143     -0.23791913180646      0.58598496372735
  C   3.14751763522406      0.86820531603349      0.08495036320242
  S   4.63720425981521      0.30074514561737     -0.67779436494339
  C   4.29670277671906     -1.35576309281614     -0.28067728466575
  C   3.08326485905690     -1.44416371296449      0.36033720213616
  O   2.53803379099513     -2.62994007721826      0.80742503653679
  C   2.74818563055055      2.21425350536717      0.06915448887043
  C   1.47550651767050      2.80785819147413      0.20453662235934
  N   1.57021375057171      4.13531379788597      0.07916339224021
  N   2.79581084611811      4.49402910483113     -0.12803141547794
  N   3.54694307466355      3.32631877896100     -0.18605875871854
  C   4.94552489780951      3.46023753927453      0.06641968134971
  C   5.74452157073039      3.88292498816352     -1.15234805944917
  F   5.51592484768579      3.12556948544092     -2.22379153334903
  F   5.51402647320769      5.15113936736920     -1.50796256009742
  F   7.06483838615299      3.79873941313267     -0.87647525750986
  H   1.19303480598017      0.67188295777740      2.09180907436505
  H   0.95130391464523     -1.07550369614236      1.88626424848721
  H   0.27019711390829      0.06231492379779      0.72486819107734
  H   4.99779456078880     -2.14436825435117     -0.49875616181618
  H   3.18475995289390     -3.32343942508789      0.65387738067127
  H   0.52741442799404      2.32723545679348      0.36550802806361
  H   5.35241664782348      2.51091977364183      0.41071353138686
  H   5.12029030947411      4.22305161770235      0.83123474167199
