24
Coordinates from ORCA-job 2489optt
  Br  1.20700535020801     -0.00584361189198      0.90514600196912
  C   3.06718783012168      0.02318007622995      0.42997840024561
  C   3.59859190733590      1.14832408921909     -0.14986787263353
  C   3.11428880830380      2.54394153794168     -0.46452311554009
  C   3.63119012170081      3.46998488116103      0.66630272828554
  C   5.15225761405784      3.49857076456480      0.35798034871622
  C   5.22152869178151      2.59389105272763     -0.90049007825786
  O   3.97808187996552      2.91625801694569     -1.54346838134467
  C   4.96890666763398      1.18341649901852     -0.43048369495028
  C   5.76234798912731      0.09753709091034     -0.12319178003108
  C   7.16344685358487     -0.22729552286883     -0.20790577105198
  O   8.10516257165042      0.48426459270065     -0.61984277566611
  C   7.27334260303828     -1.61941758230886      0.31936420733351
  O   8.24449969964172     -2.34139468313019      0.46706901247907
  N   5.95974803541404     -2.01721083937547      0.66164606172590
  C   5.05564048018016     -1.01515094721015      0.43381728070627
  N   3.77098390550525     -1.07493920991231      0.71060770583203
  H   2.07094523299945      2.65907575402580     -0.74258052659401
  H   3.39248295361657      3.07526878641205      1.65254464819846
  H   3.19097539112677      4.46194731811409      0.56575833718187
  H   5.76934084134439      3.10818419074362      1.16469762658326
  H   5.48580947609542      4.50638223877541      0.11309191868895
  H   6.06553827046078      2.75081326926141     -1.56300793632395
  H   5.73869682510544     -2.90878776205397      1.07035765444779
