33
Coordinates from ORCA-job 24892opt
  C   4.75342464718377     -0.63254346869963     -1.79509774210667
  C   4.13325048415165     -0.29651526715413     -0.46637314438502
  C   4.60341631412491      0.71065248155035      0.33760695870574
  O   5.70431209188735      1.48710995932508      0.03508041759506
  C   3.92626117704981      1.07456410705174      1.53440705044329
  C   2.82048665504049      0.29579992018022      1.83300157684974
  F   2.17202763239407      0.58613605205497      2.99497843942292
  N   2.32555323702221     -0.68490490879235      1.15401456809477
  C   2.93075789589523     -0.96916870178066     -0.07163593659449
  C   2.52199935365003     -2.28906885577720     -0.64584370536262
  C   0.97476684270383     -2.43900310310457     -0.67708356044569
  C   0.49361345767085     -2.54364925596237     -2.05502546600261
  N   0.12216991342030     -2.66657066112752     -3.13559431094757
  C   0.38658458797059     -3.59291426149508      0.20108958092657
  C   -1.13279253402644     -3.44046537069563      0.25053414136191
  C   0.75111024992658     -4.95975972847822     -0.36659784946163
  N   0.88580712913751     -3.50310110334775      1.57226252132494
  H   5.45358870305490      0.12808872528874     -2.14949035949759
  H   3.97213277266479     -0.70527244991607     -2.55980445567699
  H   5.28654382933042     -1.58790393884103     -1.78552337104716
  H   6.14825752273571      1.09601649326559     -0.72120913423818
  H   4.29922065013476      1.83520987282454      2.20001740379350
  H   2.92213466380464     -3.12539868502235     -0.03915989141485
  H   2.93066631557539     -2.42757341547004     -1.64527813164113
  H   0.57009393114994     -1.51041038635575     -0.26613725610090
  H   -1.56821475612956     -3.45913058354153     -0.75035250525825
  H   -1.39613724008524     -2.49480242538512      0.72855517132454
  H   -1.55934883726465     -4.25081637293712      0.84290133533287
  H   0.31049626125410     -5.10125144079509     -1.35477314688799
  H   0.38075695839397     -5.73845534494107      0.30268870509041
  H   1.83435403406881     -5.06795239219076     -0.45669885562243
  H   0.97326387137938     -2.52067756267728      1.83659367354451
  H   1.83644218472972     -3.85526792705279      1.61194727888101
