31
Coordinates from ORCA-job 24894optt
  C   1.89883040975033      0.15735292966714      2.44298340926975
  C   3.23150780903864      0.45593179300124      1.82910417668998
  C   3.45260002622770      1.30083183619720      0.77725215079842
  N   2.39780766775789      1.73218291681857     -0.07093211136928
  C   4.80284708902122      1.69470860822055      0.41902641286620
  C   5.67413089918124      1.68693414519233      1.50231836476154
  C   6.95848921451191      1.22916950669898      1.74182694777672
  C   7.25148610731368      0.66355509688858      3.03215099545120
  C   8.60406192470726      0.60327921961773      3.47019561454725
  N   9.61121225251483      1.00693519544883      2.56153230973438
  C   8.95004501053765      0.20116512625952      4.74133269377512
  C   7.94043078513532     -0.15207921111684      5.66213069012213
  C   6.64793284416368     -0.14937039359658      5.25618128931984
  F   5.70070512208206     -0.53063893629285      6.16117590410369
  C   6.20783870110680      0.14009689116924      3.92340392823192
  C   4.86727072164050     -0.16282744210161      3.62661497537099
  N   4.31886411407356     -0.32848003644495      2.35122363004482
  H   2.00029493827227      0.07343014980982      3.52908236990672
  H   1.47986332619549     -0.79264591863168      2.09012538968696
  H   1.17215604090195      0.94869200831135      2.24807163457761
  H   1.47831343272919      1.46064446160117      0.24609258793777
  H   2.44097034492447      2.72807474916302     -0.24096867366251
  H   5.12855713757398      1.59790672964113     -0.61276287440839
  H   5.14245215751290      1.87408325197039      2.43016262222713
  H   7.66180124270565      1.07151110162188      0.92800377123223
  H   9.29067804492499      1.77072854993494      1.97813952026578
  H   10.45878516989385      1.27379871398776      3.04191542551442
  H   9.98903135234282      0.20757058723753      5.04971470535093
  H   8.17407519382175     -0.43576680137320      6.68001534973506
  H   4.20380217741210     -0.38370572016795      4.45112376524178
  H   5.04715874202422     -0.38006910873327      1.65476302489981
