29
Coordinates from ORCA-job 24907optt
  C   1.22064191576159      0.19098078956442      0.79006165218984
  C   2.49386703114743      0.09965090379975     -0.04244802670449
  C   2.62730854732347      1.29663432196749     -0.97748667914319
  O   2.91052610936132      2.46166357901407     -0.14562806985329
  C   3.41999153411093      3.56726867518972     -0.71461810220863
  N   3.67475464002769      4.60795569442647     -0.03450579757079
  C   3.66158217491709      3.51661350384556     -2.19960876977923
  C   4.24797827457603      2.19210015219360     -2.61230148302827
  C   5.26428913715929      2.06552113048933     -3.54734792642567
  C   5.70930077851806      0.76464813139927     -3.86631658197256
  C   5.14965118736707     -0.32622248544533     -3.26302405925499
  F   5.60863880998430     -1.55361253514801     -3.60307871046021
  C   4.11593018425915     -0.25230222115985     -2.29179150323007
  N   3.54589055133962     -1.34785049560925     -1.77190052477460
  C   2.60147800527937     -1.17000997678973     -0.84514971681680
  N   2.17674131721773     -2.36014438257216     -0.17109502743116
  C   3.69678547412434      1.08147341769900     -1.99561097312502
  H   1.17601396748134      1.14438448334384      1.31915936246593
  H   1.17880697203266     -0.61409657555460      1.52413750187982
  H   0.34229152112338      0.11359221752904      0.14072649833758
  H   3.35897959159007      0.15241681875139      0.64355612595975
  H   1.65215435857302      1.49610331542945     -1.44448107167126
  H   3.43159337737026      4.43472267775406      0.94110225139754
  H   4.28839107032568      4.36185554021622     -2.47275620277807
  H   2.68590659879289      3.64887522179053     -2.68625993718588
  H   5.70531972997419      2.93499269953135     -4.01662237693654
  H   6.49988146489365      0.60107547058100     -4.58862730897721
  H   2.46888570063078     -3.14635891279697     -0.73969733525194
  H   1.17141997473755     -2.39893115943968     -0.05538720765056
