24
Coordinates from ORCA-job 2490optt
  Br  1.74794276156846      0.42547907800365     -2.21266624989745
  C   3.20526027835208      0.15006095791483     -0.32520644407558
  C   3.99900161953665     -0.95720389498623     -0.38690271106730
  C   3.70479663621062     -2.36445038680899     -0.83815721917888
  C   5.02766032104450     -2.73367504444178     -1.52019622300036
  C   5.84974925700441     -2.37181873327275     -0.25830547196272
  C   5.09601251976896     -3.24895416620311      0.76660651208183
  O   3.74074791496200     -3.23102583833352      0.32363750045833
  C   5.37218256408849     -0.95831164507860     -0.02651811361970
  C   6.00418475169756      0.16424599465479      0.42131368805802
  C   5.20663693617390      1.32748614462972      0.48581857077029
  N   5.50482449102029      2.56788321844441      0.86931357472828
  C   4.32732586642872      3.20139111545678      0.71221067491298
  N   3.30916383120603      2.48522179772901      0.27307207080293
  N   3.86857711628390      1.26944184049278      0.11717680311089
  C   4.16716683113823      4.59892158411797      1.00825043435220
  N   4.05905851852117      5.71487686549622      1.24799022034463
  H   2.77055859691312     -2.51398898003288     -1.36781653366760
  H   5.25858265524322     -2.10029278268065     -2.37412120058013
  H   5.08297610957732     -3.79041475852263     -1.78575169006561
  H   6.92622611164747     -2.52419771762797     -0.28346783925885
  H   5.16555859202309     -2.84835429306849      1.78027602241877
  H   5.46421445944472     -4.27948250796668      0.75796792066055
  H   7.04659126014496      0.21516215208417      0.70047570367446
