32
Coordinates from ORCA-job 24902optt
  C   1.66963209751296      0.51186478943496     -0.83981499412113
  N   2.78174372560178      0.29792070077786      0.06751869190054
  C   2.66145000371084      0.95686674221254      1.38200855098889
  C   1.48807582096078      0.17788917747796      2.06168494834727
  C   1.70451323479545     -1.26826018461590      1.52935329233592
  O   0.60701240676064     -1.72593645904015      0.73952118662280
  C   1.93929870584793     -2.28852927139925      2.64065915274849
  N   0.65279675933737     -2.60126641217609      3.28999952031858
  C   2.96086884741426     -1.06419746861367      0.61368294350523
  C   4.14111942718892     -0.81792953943054      1.52065407213821
  C   5.00804119490016     -1.67254000607152      2.20783919457277
  F   5.13856331240537     -2.98333321622738      1.81415068224216
  C   5.80690734926289     -1.25000560752476      3.28887890910983
  N   6.64224535272634     -1.94055442351516      4.02257851737647
  N   5.69711764349779      0.12497507306417      3.58828900536253
  C   4.62068035550192      0.91670300254550      3.13186927101046
  C   3.92684759610482      0.47102713349573      2.04710752401361
  H   1.71044712842879      1.54548981966416     -1.19367999558709
  H   0.67644835898082      0.31947633996129     -0.42104987094221
  H   1.79214064250391     -0.14399471978654     -1.70377141072985
  H   2.51645122069405      2.03545472847080      1.31062163426316
  H   0.50812771689932      0.54050121212703      1.74619623944809
  H   1.56371807736793      0.25328613843634      3.14916261416678
  H   0.04365822813938     -2.21805322326862      1.35576809111012
  H   2.69178300868063     -1.91098961038931      3.33598683483105
  H   2.32616096502385     -3.20938880348329      2.19716632923621
  H   0.38593282136236     -1.83511192832133      3.89943740235428
  H   0.74808913732503     -3.42008620217734      3.87692887250937
  H   3.04865470216715     -1.83761116666755     -0.14852459199582
  H   6.65512118722307     -2.89709312955878      3.68230909159518
  H   6.09165260495366      0.33419001672312      4.49119049836334
  H   4.52670036671979      1.90023649787572      3.56927779290469
