31
Coordinates from ORCA-job 24914optt
  C   1.10302830907454     -0.17447982613478     -0.14502919241508
  C   2.62313581776670     -0.11618536590699     -0.19932950261462
  C   3.13895679870606      0.74172562895308     -1.34899302103379
  O   2.63709682065966      2.07526603252456     -1.24435168071263
  C   4.65221061156153      0.73250702176226     -1.41018327725727
  N   5.13774270374946      1.42951435437170     -2.57489829331646
  C   6.52813932562698      1.56966590086056     -2.71096710849661
  N   7.24890808678768      0.59562238945345     -2.12858101033232
  C   8.58028462678104      0.78459812631974     -2.25091526793887
  F   9.36045650291610     -0.19535858569846     -1.70437922172584
  C   9.15770492412367      1.79330534817361     -2.95283315751274
  N   10.54668194570195      1.97117920576539     -3.09340392343901
  C   10.99261228830325      2.93216200075072     -3.96838755228522
  N   10.32219357998210      3.87442880675597     -4.49191174327258
  C   8.89606874679844      3.96821470695966     -4.14876277495401
  C   8.30847986588618      2.70649945442380     -3.60476716957021
  N   6.93876702759657      2.61560200281366     -3.39293475534813
  H   0.75649681821641     -0.76813659181897      0.70242153102175
  H   0.70258450264575     -0.62266942527941     -1.05703403601458
  H   0.68695995673539      0.82912205654139     -0.05778524543033
  H   3.03779018245094     -1.12203803739311     -0.30567737487367
  H   3.01825529180304      0.28963413715301      0.73829509155239
  H   2.74119108451380      0.36344410282747     -2.29564114750712
  H   3.21470860284868      2.55627958682235     -0.64110984054751
  H   5.01887378752730     -0.29338185906711     -1.44052682530940
  H   5.04258952042386      1.16370382367620     -0.46913702270207
  H   4.67266593798467      2.30480101876998     -2.77127413287758
  H   11.14012862163792      1.18035520487094     -2.90844472183634
  H   12.05756410657836      2.85932841735406     -4.19001646018507
  H   8.35003332580115      4.28844401911060     -5.04076758992107
  H   8.79469027881071      4.80384634428463     -3.43067357314395
