30
Coordinates from ORCA-job 24919optt
  C   1.02862617195410      0.50099800001484     -0.25605564975895
  C   2.46525240999465      0.07748826624876     -0.17618945308576
  N   3.44652628331072      0.99945768148622     -0.17973362197682
  C   4.63895858462975      0.33258276046794     -0.09433417340546
  C   5.95569184892987      1.03684652160111     -0.07433505498699
  C   4.39071542257193     -1.01712510745939     -0.04055572489660
  O   5.31699098978628     -2.05620266398289      0.08486124328980
  C   4.76491651141612     -3.27849953052669      0.07810162252117
  F   5.73144265629036     -4.20654753370962      0.22409241137062
  C   3.43845636120520     -3.59906157656147      0.03249162667856
  C   3.01923345378650     -5.04165394886761     -0.00906543229116
  C   2.57187031857810     -5.44648360077001     -1.42604836352988
  C   2.09562719888572     -6.82511713348691     -1.49480832967879
  C   1.70610914673743     -7.96023778765976     -1.51558607836177
  C   2.48293973757816     -2.55746996622557     -0.04191978335971
  N   1.09873566257808     -2.85869603492504     -0.19394605929189
  C   2.99013008066859     -1.22791138634640     -0.09091230798291
  H   0.99388407152395      1.58969966707687     -0.30807461566843
  H   0.44760348973855      0.19067120561058      0.62062133842105
  H   0.51975884066621      0.10898802700052     -1.14442236030449
  H   6.01605923034167      1.74763464692172      0.75482804878329
  H   6.12340399919233      1.60107991726360     -0.99666158287449
  H   6.76910471448845      0.31710766632050      0.03436632449566
  H   2.18787925841042     -5.21978705287408      0.67825593995090
  H   3.83642709240659     -5.68890371102193      0.30775972827181
  H   3.41077735980831     -5.31530990943853     -2.11308391583452
  H   1.77798826192235     -4.76898568832816     -1.74755649395163
  H   1.36102940399997     -8.96488148860403     -1.53981397473974
  H   0.73360895143251     -3.41767058877316      0.57044995821948
  H   0.56325248716700     -2.00200965045130     -0.23672526602232
