33
Coordinates from ORCA-job 24912opt
  C   1.02519795342013     -1.63590082138276     -2.32788189495783
  C   2.49482192896719     -1.24400080503611     -2.21914974265711
  C   2.96006283514144     -1.17564492384555     -0.77147785730425
  C   4.48813681472906     -1.04024713228630     -0.57504443632412
  C   4.95527331784858      0.27757919402362     -1.21827081747257
  C   4.71876605570321     -1.00447167303996      0.94548135544579
  N   5.05777947340859     -2.20475658686545     -1.21624980401293
  C   6.34256220978609     -2.41851372222149     -1.40951333315248
  C   7.53234207491660     -1.81551847446319     -0.98112092303530
  F   7.52543294737002     -0.80334193118801     -0.06033485553526
  C   8.82156781418070     -2.08717748558091     -1.45053715116799
  O   9.00254011147448     -3.24235383007808     -2.25073672097480
  C   7.91324693806192     -3.89145259695549     -2.64969090854834
  O   8.23861791374654     -4.92109829951502     -3.46042903457590
  C   6.64485023862368     -3.58806672953176     -2.31094612935088
  C   5.59540297389463     -4.38924833203463     -2.83200650366293
  C   4.72279146078823     -5.08542705622933     -3.28247167442373
  H   0.68795343107714     -1.66720441987976     -3.36628153501882
  H   0.38531107193079     -0.93079168977529     -1.78907876545905
  H   0.86161179663067     -2.62514916649222     -1.89375522398843
  H   2.64811546504052     -0.27800892148762     -2.70973775531129
  H   3.12346755075289     -1.97358714133336     -2.73424045805435
  H   2.66121022882623     -2.10302939155772     -0.27107016022270
  H   2.45226827640754     -0.34950514012234     -0.25688047828080
  H   4.34729496896238      1.11710343049969     -0.86427792141428
  H   4.85572019497612      0.21081933757170     -2.30290349353938
  H   5.99765391515966      0.48483394431016     -0.98620188545452
  H   4.17114822944616     -0.17054258136821      1.39752871216612
  H   5.77224995968027     -0.89973955121132      1.18973825868207
  H   4.35108213266861     -1.93561456137478      1.38229632927241
  H   9.69181152502858     -1.89708022266411     -0.83802920365711
  H   9.19598278602787     -4.88802848985091     -3.56838428523023
  H   3.93972540532317     -5.69083422903341     -3.66634170277895
