28
Coordinates from ORCA-job 24925optt
  C   1.26720631831240     -0.26323130876269      0.64210886849459
  C   2.57846706791252     -0.24503841632780     -0.11071211730867
  C   2.94792168934720     -1.74699805630995     -0.62134063297357
  O   4.33681481821492     -1.98439835178528     -0.18981922119858
  C   4.63630968844831     -0.59562621633465     -0.15510201637951
  O   3.67802017081293     -0.13289282568114      0.77007470209950
  C   5.52159282684175      0.65817598103242     -0.21825647843750
  O   6.67696837353893      0.90261477544870     -0.06732357862495
  C   4.37760942632907      1.63282458936202     -0.71386763173592
  C   2.85466117308194      1.06308872202020     -1.03416180188676
  C   2.78612090604695      0.83596067688818     -2.55627704721595
  C   1.48113814962496      0.33314308293896     -3.12785941833643
  F   0.52515895098529      1.24703188155988     -3.23075050970355
  F   1.68365134050531     -0.13638452865259     -4.38888926924200
  F   0.95227306463309     -0.71027874231235     -2.44746420676718
  C   1.91182242909460      2.22728788339104     -0.72504000901835
  O   2.02767398725352      3.27152750045539     -1.46596844261858
  H   1.28467506360334     -1.09281772982321      1.35254888862108
  H   0.43410202197763     -0.39014212061221     -0.04693949369045
  H   1.11812855775845      0.66499691771325      1.18503938188583
  H   2.89179779565189     -1.87564736359436     -1.70109400756992
  H   2.31623318891298     -2.47397840322303     -0.11592624746470
  H   4.36460829192198     -0.38236894825342     -1.19558405718776
  H   4.75029483346201      2.13259735958174     -1.61115552007351
  H   4.27373108951968      2.40280659894336      0.04986401369558
  H   3.55458769483657      0.14932324341864     -2.92361173074609
  H   2.93875469719343      1.81590997628487     -3.01365825793787
  H   1.69467638417826      2.35551382263404      0.34916584132122
