29
Coordinates from ORCA-job 24921optt
  C   0.95995887577963     -0.10123873191359     -0.00301934296324
  C   2.47639582268161     -0.05235923468188      0.14223159665918
  N   2.79922880149017      0.14894349019012      1.56567864095133
  C   3.09983175769057      1.05621626986950     -0.78185346686202
  O   3.12639850365713      2.31714263027964     -0.13744233911322
  C   4.48120607339931      0.53119143593011     -1.28269376203555
  C   5.67318532198502      1.00176172743272     -0.44484325569324
  N   5.89638160538228      2.44728814368097     -0.64118981325850
  C   4.26069252703352     -0.93946401632072     -1.19203918118369
  C   4.87219612143793     -2.17704282698492     -1.49705539394881
  O   4.03055033353140     -3.16408461931508     -0.96254621537492
  N   2.98021333031082     -2.55674724816394     -0.20946167860533
  C   3.17914568093091     -1.26150012764643     -0.40288667566004
  C   5.46620995418985     -2.53635869317108     -2.78283913881074
  F   6.37716987331042     -1.61166949672685     -3.17573595296137
  F   6.08840861042935     -3.73529054492574     -2.77830978097772
  F   4.60104633309154     -2.62659292627944     -3.84959404680566
  H   0.52173111818147      0.83540083869322      0.35158819686600
  H   0.56870180701055     -0.92224309150034      0.59695071533582
  H   0.67506466875494     -0.25892019308612     -1.04478948833113
  H   2.94114810872431      1.14309165514092      1.72010472582877
  H   3.66350012521099     -0.33013898882949      1.78786478361370
  H   2.44953239552641      1.13111793514644     -1.65985512528440
  H   4.02040386597786      2.68635122007510     -0.23448506849801
  H   4.65600347106388      0.88221999119541     -2.31014778196897
  H   6.54331139875807      0.39335999768458     -0.70856889586519
  H   5.45891729026723      0.83681699288764      0.61276855825016
  H   6.13556016542564      2.62689943272433     -1.61034962465809
  H   6.66890605876692      2.77884897861494     -0.07648118864510
