25
Coordinates from ORCA-job 24929optt
  C   0.94151872268612      0.19661652750912      0.52161113675837
  C   2.27334131498784      0.07572819452902     -0.14185740134234
  C   3.17269141708752      1.09997193227014     -0.40334378903391
  N   3.07302562693328      2.45358201647872     -0.17731825396130
  C   4.21911679593055      3.28909300751430     -0.07034400594015
  C   4.87282637981663      3.82744559092892     -1.16329839756091
  F   4.80975543718019      3.14184853010385     -2.36364436936668
  C   5.63918101330837      4.97967118905241     -1.14832480864793
  N   6.44845804665701      5.26806717559816     -2.25884072215754
  N   5.69616013974949      5.87196096063273     -0.14793249575145
  C   5.12585187613760      5.65855270238105      1.04740679257941
  N   5.00252419802444      6.49517401798527      2.01586258724887
  S   4.52836436263095      3.99434150733826      1.50182171668250
  N   4.23490557588280      0.53704469977942     -1.00680222230445
  N   4.10804753596068     -0.79804427123724     -1.16728346068158
  C   2.92571356461477     -1.06714269334265     -0.64322074642092
  H   0.24991783564258      0.81767815017667     -0.05507763117721
  H   1.01835817495009      0.63641621916738      1.52025932454003
  H   0.48391494332611     -0.78712440745519      0.63414893018564
  H   2.32285619503699      2.70210865136296      0.45573277857509
  H   6.09047107553065      4.89665683321096     -3.12592988421664
  H   6.63753230797852      6.25883441705779     -2.30585388354552
  H   5.43313265163827      7.37002756704575      1.71452841096187
  H   5.03906400123110      1.03273358385841     -1.35532045059176
  H   2.56627080707732     -2.08624210194625     -0.62997915483150
