26
Coordinates from ORCA-job 24922optt
  C   1.15949235331257     -0.23335641146366      0.06806042568935
  C   2.66101309599434      0.01230914987364      0.10479804592715
  N   3.35209871126408     -1.08489275934778     -0.60332622091954
  C   3.77131215297668     -0.59144715240124     -1.78286683145493
  N   3.67858533514808      0.68044637815668     -1.98640280057104
  C   3.16300830731597      1.23450226977306     -0.72557575756471
  C   2.12612330443406      2.30270553858590     -1.07524407980004
  C   1.42529214598333      3.08211782176188      0.00136553085850
  O   1.35570550178457      2.81033812708618      1.16731874165132
  C   4.35992721929705      1.90184836768738     -0.02981894766671
  F   5.40076341862472      1.07610312683616      0.09226564124356
  F   4.78587280750232      2.97618494967828     -0.71872820023055
  F   4.07781614104940      2.34162891790642      1.20648574047045
  C   3.06009046128872     -2.46443323546315     -0.33100268170353
  N   3.31788485644246     -3.01360555595374      0.86283561848755
  C   2.35458773133393     -3.12862148224499     -1.34456342797476
  N   1.79070431725673     -3.65574064084600     -2.22131349351268
  H   0.94953098106423     -1.17324179724749      0.57839336142478
  H   0.81680617484894     -0.33811433661347     -0.96370219702764
  H   0.61850258509331      0.56880625526861      0.56638568114673
  H   2.99932493907676      0.07583731178784      1.13956809048054
  H   4.15848199411804     -1.28130221881482     -2.52364534545009
  H   1.33307463415937      1.81848824771102     -1.65643510743707
  H   2.58602985995602      3.01250823255444     -1.76659261610649
  H   0.90031556598070      3.98141874138999     -0.38473599001698
  H   3.89865540469355     -2.36248784566115      1.38847682005683
