32
Coordinates from ORCA-job 24939opt
  C   3.74481569538561      0.34910368887379     -0.68089621278599
  C   2.38833276285409      0.06132903838353     -0.04555159168428
  N   2.47740149572765     -0.91689266954841      1.03563819354854
  C   2.72150182899613     -0.50039284675675      2.29561363131084
  F   2.49827318267588      0.81702372788824      2.49394267538522
  C   3.14605280369196     -1.25468553748942      3.32222186673154
  C   3.37605691473875     -2.68832043872994      3.13461487931348
  N   3.74343014732427     -3.47493733025006      4.10204397233860
  C   3.13861376402762     -3.16082935490456      1.79078053464867
  C   3.25103130267820     -4.53791576982796      1.54224644303099
  C   3.26667990499779     -5.72730771310563      1.29363000480993
  C   2.83414125301960     -2.26386072455820      0.70604074634746
  C   2.23700391046566     -2.79262608904284     -0.56975057001167
  C   0.73130598101230     -2.92147397440527     -0.49036352737753
  N   0.28528615214963     -3.90608746024409      0.35454846597456
  N   -0.02327939435450     -2.13728850503275     -1.16959554118292
  C   -1.44823048664440     -2.30227657296895     -0.99125458691735
  H   3.63790033739736      1.06836098533027     -1.49549838088623
  H   4.18244753277469     -0.56932452883766     -1.07348242107932
  H   4.43488761452061      0.75929096383071      0.05886998569822
  H   1.68309291686903     -0.32300136180581     -0.78201962131626
  H   1.96071087594257      0.97428383339302      0.35996469400441
  H   3.24793854964678     -0.80072047771887      4.29756275624396
  H   3.83062434016299     -2.92696313915438      4.95610567531552
  H   3.39002398591546     -6.76120060369283      1.08609084216131
  H   2.66630080219303     -3.78110560776850     -0.74008428141997
  H   2.46183261872568     -2.17195393417493     -1.43870271130272
  H   0.97394042065060     -4.32878936552611      0.96592716255197
  H   -0.63966462582723     -3.81941846000669      0.74114441383631
  H   -1.98117143922787     -1.62709191016590     -1.66066945455695
  H   -1.77182032896181     -2.06741131487558      0.03370610517707
  H   -1.77946081952832     -3.32751654710734     -1.20982414790744
