28
Coordinates from ORCA-job 24937optt
  C   1.16057696256441      0.75848220423454     -0.45288407591934
  C   2.40834044026074     -0.00032940777558     -0.02036289232887
  C   3.58236497095981      0.29586358661976     -0.95071815732963
  O   4.70779729026942     -0.51213363175911     -0.67908632718922
  N   2.76013884596414      0.32354735785557      1.33949599149155
  N   2.66975432663589      1.63962239761450      1.79476762522192
  N   3.17614236848572      1.64373410510865      3.02692779676112
  C   3.59877401926303      0.41583320140425      3.33989553549158
  C   3.36607247962620     -0.47686643006166      2.25620989537255
  C   3.73376964141962     -1.81574220781394      2.26125055183153
  C   4.32848323608810     -2.32036286441268      3.44847151073675
  C   4.55759313868467     -1.46892260245308      4.51539301129878
  O   5.19115573359444     -1.97428662029010      5.65562518888518
  C   4.47225710079922     -1.96507197486898      6.79396569851202
  N   4.89984890486493     -2.38146094217959      7.90285442333271
  C   4.22012387484689     -0.12175401573693      4.48944076622614
  F   4.50782465138026      0.66037673207659      5.55777577727894
  H   0.85484151639470      0.44145124856933     -1.45141316415833
  H   1.35692287279053      1.82990502803084     -0.45552651404231
  H   0.34630069311241      0.57296756227408      0.24648337696600
  H   2.21815375113576     -1.07851130942615     -0.04586813817950
  H   3.82671955457164      1.36091685753496     -0.85679414976421
  H   3.29733733844341      0.09292317967271     -1.98629138281349
  H   4.85774413157357     -0.51963950244360      0.27620046128720
  H   3.56937455428124     -2.45595429311476      1.40504199594122
  H   4.62879220214664     -3.35454958342375      3.53795537151632
  H   3.46386768890868     -1.56880608087847      6.68305205824835
  H   5.86392771093380     -2.70123199435739      7.79913776532502
