25
Coordinates from ORCA-job 2494optt
  Br  1.07193560927353     -0.17905665125771     -0.43412177429158
  C   2.96062230277566     -0.14235132026785     -0.24747214152330
  C   3.61289327263251     -1.15611102565922      0.47341277355346
  C   3.07593188314614     -2.53995288026271      0.75735086783517
  C   3.16151787468640     -3.35575923315340     -0.54251398429161
  C   4.67331279799851     -3.66942822545804     -0.61115813759780
  C   5.16523801080330     -3.42734352549161      0.83118311240003
  O   3.97542607557762     -3.25127830692753      1.60945706840176
  C   5.92315093417518     -2.10243176675010      1.00655488617939
  N   7.10001277425412     -1.82582971359334      0.19216007861308
  C   7.02718172519169     -0.51513468121062     -0.37522857776670
  O   7.96953623522804      0.01197016429441     -0.94321131887280
  C   5.67032413684673     -0.07823761866040     -0.15412780710997
  O   5.04346886583184      0.95190401667596     -0.78466378622730
  C   3.63605517718393      0.96741511714225     -0.84429571319617
  O   3.14298695602234      1.91453838718982     -1.41394540003984
  C   4.98151495688114     -1.03249103443738      0.55369547678887
  H   2.09142222193464     -2.54534711628415      1.22229113094804
  H   2.80018341412959     -2.79552571480921     -1.40337577605932
  H   2.57489619561292     -4.27024392082048     -0.43928228479752
  H   5.19632662776807     -3.00376571397913     -1.29867803110210
  H   4.85802051146837     -4.69426228152700     -0.92981338599153
  H   5.70790436842495     -4.27490048389295      1.25168528371479
  H   6.15355788403134     -2.00364770545056      2.07432024590501
  H   8.00757918812138     -2.04972876540904      0.57377719452792
