29
Coordinates from ORCA-job 24949opt
  C   3.41188178763093     -0.23758892353821     -1.20881019507855
  C   2.48279072439259      0.12250037868419     -0.03851068812040
  C   2.46402029731258     -0.99646340596927      1.00485939839741
  O   3.74477772061697     -1.34039965260744      1.52142594526973
  C   2.80141820274371      1.47748587444298      0.52414434657654
  C   2.16505411254546      2.60108511121665      0.13868393545073
  F   1.13769537957470      2.49651087489114     -0.76835964361184
  C   2.54205081090046      3.89706418106599      0.55753320635452
  C   2.15330989403381      5.19962270210247      0.22048291768944
  O   1.17495762770985      5.59566507100263     -0.68324868811360
  C   2.96989467301488      6.09715184301414      0.90420506194203
  N   2.86662286971543      7.51750689052805      0.81585753255944
  C   3.88933948078500      5.36893954713463      1.69180064276905
  C   3.64018421118417      4.00555453368103      1.47893047502585
  C   4.16964770665789      2.82019739525790      2.03972962171671
  F   5.46632713643039      2.85160519343449      2.51104979109970
  N   3.92612289738200      1.59789025928830      1.36828230975595
  H   3.23803799147268     -1.25850503389783     -1.56406317251507
  H   4.46203506970086     -0.13072628787445     -0.92554234866051
  H   3.24039674644338      0.45167746252347     -2.03501058610565
  H   1.46385485346776      0.17524608379042     -0.42803090313740
  H   2.00179491764106     -1.88780556924939      0.56139453917985
  H   1.86505502662572     -0.69235441321422      1.86434043304466
  H   4.37836317764128     -1.32482213240034      0.79717340287710
  H   0.74900251212552      4.79592338002094     -1.00378899951968
  H   2.17639656741957      7.75899186459199      0.11452479816859
  H   3.74969798873327      7.92300693387254      0.52724958725030
  H   4.62556499016455      5.78918543986177      2.36031119426714
  H   4.06970462593340      0.78585439834533      1.95338608546791
