26
Coordinates from ORCA-job 2495optt
  Br  1.03781014911835     -0.15949580928873     -0.43471064188715
  C   2.93396076818665     -0.09165747777787     -0.20752082174076
  C   3.69527939622834     -1.20458043636442     -0.31604846262959
  C   3.15593650823605     -2.58228361571226     -0.59519733748208
  C   4.04845355847879     -3.30961984348395     -1.59481330871575
  C   5.24826306417074     -3.53077965231599     -0.67551389129067
  C   4.55568392386922     -3.96181072607062      0.62397872483274
  O   3.24137492342945     -3.41477166100610      0.56821089685699
  C   5.97500384202851     -2.20673882629505     -0.50265580308846
  N   5.07630508779150     -1.13813274556170     -0.08207052757708
  C   5.75308591452426      0.09396220234956      0.23947553855665
  O   6.98585515002903      0.05870913229896      0.37906455586985
  C   4.90946311893103      1.20096536641049      0.34063899829413
  C   3.50396091799451      1.17360449440179      0.11686040244026
  C   2.95506951765821      2.44872378191994      0.25167606464554
  N   3.77847768860288      3.44554621746316      0.55520032069613
  S   5.34918189894075      2.84802096349905      0.69983657417924
  H   2.11114437135405     -2.53103523029834     -0.88003452557992
  H   4.28954458860788     -2.70886917048943     -2.47136998982405
  H   3.58291795117710     -4.24764242750850     -1.90194906343059
  H   5.94998508605484     -4.28321976133506     -1.03516650616341
  H   5.07932977899019     -3.57783428954730      1.50347746910853
  H   4.47345446402264     -5.04979901733025      0.70377346585837
  H   6.46697677749137     -1.92990209837422     -1.44482639780665
  H   6.76362569066939     -2.28766798533611      0.24474449837913
  H   1.90085586341418      2.66730861575298      0.12493976749864
