27
Coordinates from ORCA-job 24954optt
  C   1.57996176940149      1.04833144077973      0.04611991901749
  C   2.64452650242102      0.00325580546918      0.13293417640088
  C   3.83127012560805      0.20177217419538      0.73352871255723
  F   4.17441699079300      1.39629806834707      1.25823912003639
  N   4.79013994919145     -0.72143698614339      0.88917717925891
  C   4.65106457023122     -2.03148048738731      0.37706281614227
  C   3.43779131645141     -2.36206608585459     -0.24029516327318
  N   3.15749535804961     -3.58431778545746     -0.74031809368119
  C   3.77411775026293     -4.51713649275694     -0.03126712975599
  N   4.31076149765786     -5.66583410882201     -0.45348495934904
  C   5.36559020749093     -5.99111645324682      0.25025264984267
  O   5.93576801537766     -5.06898450261859      1.15460778346911
  C   6.46118701431726     -3.96105019623442      0.52249891270456
  C   5.96342256855559     -2.72093770738628      0.29106090602149
  N   6.96700790241120     -1.76542434901326     -0.12592565208396
  C   2.39656382823846     -1.31203110641657     -0.43429885438364
  N   1.29632387853624     -1.53600343266661     -1.05842818302095
  H   1.86882538063361      1.95987456276810      0.56772063682465
  H   0.64984526613679      0.66367332395114      0.47047210214901
  H   1.36098893636162      1.28150414436181     -0.99802277964930
  H   5.72771064760242     -0.41333373428266      1.09686259818789
  H   3.96637509244534     -4.25423514380116      1.01171936637960
  H   5.87194217969830     -6.94321500073490      0.20048677767984
  H   7.47616647384341     -4.14545129819245      0.17452460856607
  H   7.88369728611444     -2.18865843627176     -0.17515244802542
  H   6.72923544951170     -1.36836707838824     -1.02923526617735
  H   1.30480404265692     -2.51362913419692     -1.35383973583804
