27
Coordinates from ORCA-job 24956optt
  C   1.10440623472269      0.03013362580697     -0.36831061023149
  C   2.58030288205350     -0.03058838591025     -0.01432111258453
  C   3.43124363022670     -0.19240668789231     -1.27408173570471
  C   3.03350976419505      1.19037218213839      0.80454786189500
  N   4.06456702074962      0.62265272539933      1.65435796917032
  C   3.76679313289126     -0.72845394440960      1.89478464351036
  O   4.25344899435670     -1.38598540696162      2.78577625347873
  N   2.87144116978888     -1.11481163435646      0.93867788040980
  C   2.36715276232399     -2.42410395189751      0.78615330130314
  C   3.09284297231269     -3.36510992517606      0.02508166105472
  F   4.31261935686715     -2.99690948121185     -0.42782804140692
  C   2.64855322083608     -4.64068777462644     -0.29067348560248
  F   3.47479845726819     -5.39287830514442     -1.05900071249511
  N   1.53103508262438     -5.21185283217979      0.04313749594600
  S   0.47166481336090     -4.38292631812975      1.03590117969319
  C   1.11244018865443     -2.74194251722582      1.36778093416529
  N   0.40326628896587     -1.94009832732451      2.09209587739433
  H   0.91639163728104      0.89842421204563     -1.00533663631149
  H   0.49738158184353      0.08206199138078      0.53394753011274
  H   0.81331887365879     -0.86958402320895     -0.91403197424145
  H   3.22894461536331      0.62100621051860     -1.97558323795217
  H   3.19837491310874     -1.13991340577532     -1.76132444636873
  H   4.49162682525989     -0.19340368690387     -1.01779612973591
  H   2.18939423965578      1.58128742760222      1.38404132429172
  H   3.42464393944230      1.97934251640064      0.15929690620709
  H   4.34174391827098      1.11786546666394      2.48694117792013
  H   -0.45690651608248     -2.39148974962194      2.39776612608244
