28
Coordinates from ORCA-job 24950optt
  C   1.21091842221651     -0.23812401102788     -2.40908437528260
  C   2.71103929766730     -0.12446476921420     -2.39264455292095
  O   3.40367799018555     -0.59302223448000     -3.33111273013607
  C   3.35291644417945      0.55986446383941     -1.21679467826552
  C   3.00296127832373      1.92898505406059     -1.78302047367693
  O   2.00676113828577      2.58125038743249     -1.40860652491712
  C   2.67765401495784      0.42344785731804      0.13709808342589
  O   1.90820209678509     -0.43472256057841      0.46876200160600
  C   4.83468299039631      0.35454109821550     -0.96568083709307
  C   5.59247333794477      1.44491380965204     -0.55548056767531
  C   6.90927668172298      1.23486536530322     -0.19765633254266
  F   7.65151512127436      2.29241319617066      0.19255789181916
  N   7.51659009284433      0.08494859196570     -0.20410308666708
  C   6.81303003737536     -0.97979409137250     -0.60375125528343
  C   7.53014925917084     -2.29971172744089     -0.60171004109825
  C   5.47261132258149     -0.90308877497615     -1.00624848614763
  N   4.78927608850658     -2.05653023141309     -1.37450318252560
  H   0.88711700038487     -0.28158294674695     -3.44954844449333
  H   0.73467505328590      0.60354245765907     -1.90421436234460
  H   0.89924869873110     -1.15605843193460     -1.90172168480790
  H   3.66462705421989      2.25540052202970     -2.59734770253658
  H   2.97553395338886      1.22627276948489      0.83987219829882
  H   5.16223402573794      2.43617662129912     -0.51500875415314
  H   8.52926671032991     -2.16177560777682     -0.19568885697909
  H   7.61929872648130     -2.70427186312506     -1.61508025119979
  H   6.99859625677377     -3.04084359743540      0.00151738031624
  H   5.40056779330543     -2.82905353947880     -1.58676217088515
  H   4.14909911294261     -1.87357780742964     -2.14703820383429
