24
Coordinates from ORCA-job 2496optt
  Br  1.75614956746301      0.51869851501102      1.18064035697382
  C   3.54078342199512      0.38532388107543      0.58057801499802
  C   4.32562711836996      1.49274387066271      0.33047883305927
  C   4.11958028795987      2.96711508370700      0.59913381147384
  C   4.93192955798679      3.60344178934833     -0.52777614957203
  C   6.19730346699931      2.79625946117186     -0.15906596778662
  C   6.28981081320597      3.21413209331808      1.33903401447013
  O   4.93328865064016      3.29900808695976      1.76314171904944
  C   6.94442214197855      4.52328035227221      1.51896649639334
  N   7.46383570779301      5.53947705395503      1.63232061339231
  C   5.63543728468454      1.39941665898636     -0.12954494044918
  C   6.24279457130522      0.15200298138119     -0.29335119201140
  N   5.39068517398405     -0.93758114214397     -0.09535587371845
  C   4.06652279953334     -0.93214262465801      0.33043446693396
  O   3.46784890700788     -1.99661695843326      0.45776467906708
  C   7.60207421709236     -0.07903535268374     -0.61150174727175
  O   8.46304115001560      0.80409716896502     -0.80125756664248
  H   3.10841252632919      3.30787275515656      0.79425150576287
  H   5.04084777786313      4.68202689409433     -0.40422469990844
  H   4.56311927446314      3.35616451454382     -1.51974734858611
  H   7.11237670226905      2.94267580190585     -0.72046294781700
  H   6.83348793498653      2.47027161964083      1.92293349324792
  H   5.75637557028709     -1.86727591867657     -0.24184809778908
  H   7.88324537578706     -1.14935658555984     -0.68254147326948
