26
Coordinates from ORCA-job 24966optt
  C   1.20747521019115     -0.00221412190218      0.98920518766663
  C   2.50814107893895      0.12899560242411      0.25997848515869
  C   3.02132824237600      1.38409574158934     -0.15179598762806
  N   2.49079662808263      2.62656671048911      0.02654707572726
  C   3.38980595290181      3.43642372916684     -0.56188180220019
  N   4.46237960098709      2.84628043041326     -1.10893628361402
  C   4.23136034007991      1.54535815302802     -0.85038924527850
  S   5.22723894994881      0.20448114197946     -1.29989980317078
  N   4.42057953784752     -1.10280075069858     -0.67774120184107
  C   3.29222232866266     -0.97838760951245     -0.04957430811977
  F   2.79263273860756     -2.16749114816409      0.38571055255146
  C   3.16500297055815      4.92860505066223     -0.52755369043970
  C   3.84023176001642      5.64363504050729     -1.67585896874004
  O   1.76224122518921      5.18251611444957     -0.57586647531456
  C   3.65969977437534      5.52058391112247      0.82242137819972
  N   3.28141524338481      4.80936004952103      1.90996342167274
  O   4.28524896916172      6.55973309875943      0.89741294783637
  H   0.76003580383299      0.98413023420991      1.10104637355493
  H   1.34029893787793     -0.43974146498808      1.98233106216658
  H   0.50640360893404     -0.64420946328091      0.45002101623688
  H   3.45602121730256      5.24478378111536     -2.61332143442654
  H   4.91550084830872      5.48206525959997     -1.63400746495888
  H   3.63505741739176      6.71048410042870     -1.60688765930786
  H   1.33891144205695      4.35667629296255     -0.29698909835396
  H   2.83510183073734      3.91014950221831      1.79515854135639
  H   3.53786834224780      5.15092061389922      2.81890738126629
