32
Coordinates from ORCA-job 24969optt
  C   0.94101073802758      0.23391494158060     -1.19369634895925
  C   2.37583597184534      0.21941571968193     -0.75270151109537
  C   3.19067682217264      1.34897484644242     -0.79009436601958
  C   4.51619192132471      1.31668677206832     -0.36212369398811
  C   5.31119245396522      2.56674390191553     -0.42442937319435
  C   5.83352723104936      2.97246938286790     -1.65499350822501
  N   6.57873456701644      4.13000282646691     -1.76302162765712
  C   6.76718932529208      4.77443038523522     -0.62925112513947
  N   6.34084655835811      4.48126126532251      0.59902043975796
  C   5.56726134704942      3.33440531654033      0.69516072576260
  C   5.11470316479841      2.98611206453642      2.07710892206210
  C   5.06273455978629      0.12110176337492      0.10999793780662
  C   6.48590621450574      0.05684844157740      0.59175529209758
  C   4.26350340019709     -1.03685145948287      0.16959060250771
  C   4.81186251785591     -2.33924489271747      0.68188371804237
  C   2.95523994571712     -0.94041081250438     -0.26903807048435
  F   2.16997113749134     -2.05418507717857     -0.22811932221619
  H   0.67139138324653      1.22393064060901     -1.55936288406122
  H   0.26861688753441     -0.02375151093502     -0.37193990645341
  H   0.76074736855668     -0.49006374168494     -1.99130834663331
  H   2.79188593645241      2.28931547197098     -1.15388987766378
  H   5.66055122513552      2.39304343854206     -2.55347189249707
  H   7.36596608196456      5.68400086257509     -0.70137531498403
  H   4.61766187446972      3.84405746919339      2.54077203951204
  H   5.97855120585261      2.75115445831726      2.71465001083654
  H   4.43449934593639      2.13384265461284      2.08493239033918
  H   7.03497573773637      0.94299591879067      0.27999428017735
  H   6.99415948805841     -0.83059717192142      0.20848894437454
  H   6.52572277573377      0.00315894243629      1.68625516233321
  H   5.56271301780774     -2.74735477280089     -0.00089621622561
  H   4.02455222622239     -3.08071238181381      0.79877695599738
  H   5.30261756883957     -2.20069566361866      1.64732596389003
