29
Coordinates from ORCA-job 24977optt
  C   0.94209065010965      0.06138635607960      0.33460488064441
  C   2.46181626170375      0.01559223704092      0.24578471963299
  C   3.02338198724008      1.02531555502668     -0.76125151799897
  N   2.57758038532106      2.41915069237911     -0.55559666253254
  C   2.85215323649890      2.94329885369670      0.77397460863599
  C   4.51493759449375      0.99827184505050     -0.78499525324235
  C   5.45750443154247      0.21243512521292     -0.19508076066201
  O   5.31206015583487     -0.89321217746146      0.56144238317448
  C   6.49680771868638     -1.55859344192416      1.09632120263031
  O   6.20899366504712     -2.49687136669256      1.81481514724405
  N   7.69478924099924     -1.11157467173593      0.75468753692488
  C   7.83095539599034     -0.07712030217565     -0.07576283169360
  F   9.10870385652161      0.38948151040421     -0.26736192259259
  C   6.76783622856484      0.69526392751201     -0.54695627795566
  C   6.55253434652490      1.80055912999025     -1.33293308569295
  O   7.43544897099571      2.64061942345044     -1.94871891460431
  N   5.20229799053016      1.95902717092834     -1.55869918753565
  H   0.56441257051631     -0.71794354388306      0.99747362117487
  H   0.48492151837120     -0.08539699027194     -0.64813722173063
  H   0.59054309370343      1.02068351639419      0.72344022867096
  H   2.79747657329176     -0.97932467377397     -0.04888302639697
  H   2.90813749200013      0.18850291979219      1.22722307660071
  H   2.63559583961970      0.75801345585535     -1.75415083867858
  H   1.58758013982652      2.48576682009932     -0.75900708832163
  H   3.92382424037321      2.86630685581385      0.96654303076820
  H   2.33278076267864      2.41517692899369      1.58460094144224
  H   2.56974278664353      3.99628623650352      0.81309064037759
  H   8.31667529766971      2.33394353258010     -1.70651570383965
  H   4.78741756870096      2.87495507511485     -1.65695172444361
