28
Coordinates from ORCA-job 24983optt
  C   0.93514463720020     -0.05508465005518      0.12822787214333
  C   2.43357718121070     -0.05740113718767      0.11310352624887
  C   3.17682215938418     -1.17844834904320      0.15511035579862
  F   2.63942667256702     -2.41893759783929      0.21294401164973
  N   4.55098738794879     -1.20948084166139      0.20266860875977
  C   5.36055134239552     -0.03920004318376      0.07234580047344
  O   6.59809660294571     -0.22043546214376      0.02562237530037
  C   4.62333343534441      1.13902281277855      0.02760899006326
  C   3.18878310770365      1.15072007397966      0.06767116228356
  C   2.77648517158011      2.51048433602754      0.05704177456392
  N   1.66301065663344      3.24217488969018      0.07752361866492
  C   2.11085253973319      4.53830161181404      0.05216120067014
  C   3.48150908735234      4.60949729444565      0.01410734440168
  N   3.89762775569584      3.30194792565780      0.01836807111195
  C   5.15385927089845      2.55995355708395     -0.02180700626788
  C   5.97296436754506      2.92576406604812     -1.27069316881607
  N   7.31176300596833      2.35444142168670     -1.30659868819503
  H   0.53826423706995     -1.06428827393259      0.23057842228143
  H   0.54435950736932      0.38928694351623     -0.78950813155749
  H   0.56617803108519      0.56160800532344      0.94995487561134
  H   5.02330045992319     -2.07808639999763      0.00819649674502
  H   1.42200278979332      5.36943510203629      0.06156578796852
  H   4.15689117553823      5.44677867963587     -0.01555869316625
  H   5.76566525851698      2.80190484222472      0.86123858277093
  H   6.05085708465428      4.01654176733614     -1.33243430285111
  H   5.41122951180995      2.59192772038162     -2.14660379482094
  H   7.24642836634960      1.36228034986797     -1.06846823390597
  H   7.86302919578296      2.76229135550994     -0.55836685793006
