32
Coordinates from ORCA-job 24980optt
  C   2.28388841364316     -0.06842786580597     -1.47238822510163
  C   2.21197661516279      0.33234684937489     -0.00171328790959
  C   3.09267712386088      1.52286212554918      0.40400168302265
  C   3.15059697788956      1.61835888731514      1.94075614485557
  C   1.78674085428320      1.69389876415192      2.61906386067183
  N   4.45221435743761      1.27331084065730     -0.09881413611066
  C   5.46086480596771      2.34054532230495      0.04005131242034
  C   5.28240514965949      3.52479479752108     -0.86773434038512
  N   6.26254063958142      3.77948950620358     -1.81679995159447
  C   5.95489997249911      4.83240676138191     -2.55418680693719
  F   6.86854715773467      5.13616667930445     -3.51510314954389
  C   4.84399523444538      5.62504111943880     -2.46108901037601
  N   3.85606701623201      5.36892739127664     -1.51457815529382
  C   4.16630438050009      4.31455260639490     -0.77573034083465
  O   3.22779722414269      3.95046104839041      0.21461830003465
  C   2.50327058765237      2.83451033073260     -0.12434835278511
  N   1.41890282534722      2.90949946099194     -0.76348977169274
  H   1.51125830757865     -0.80622244509630     -1.69618250506269
  H   3.24400808550989     -0.52234126802598     -1.72201112995335
  H   2.11950955142721      0.79454054649977     -2.11758468706147
  H   2.51107732941622     -0.51666229255621      0.62087239520787
  H   1.17928164941507      0.58001479500019      0.24098837411319
  H   3.72891156365985      2.50030494373798      2.21355855286117
  H   3.70623388887243      0.74271606093275      2.28608500704255
  H   1.18191724472365      2.49694291165498      2.19325374137244
  H   1.90315787204588      1.88928087596566      3.68617880697813
  H   1.22898761923827      0.76310866569374      2.51009201478246
  H   4.38596043440257      1.07621692953531     -1.09141303960374
  H   6.43007812609418      1.89852231749608     -0.19382484278392
  H   5.48866549242436      2.64393040858308      1.08891927090611
  H   4.70658664357426      6.46243049622615     -3.13129683343051
  H   1.26167685557808      3.88947242916902     -1.00915089780838
