34
Coordinates from ORCA-job 24997opt
  C   1.65747930881580     -1.59492788368979      1.87353341792910
  C   2.21431966326852     -0.48704207726957      0.98001670456556
  N   2.93860666243713     -0.90469104940349     -0.21167060775426
  C   2.12726615145054     -1.45592094242502     -1.27549541564856
  C   4.26775654848384     -1.42829297677401      0.00327522066445
  C   5.26850534145740     -0.48690105043230     -0.12271730621640
  O   4.95563603732819      0.79084203816809     -0.48325671548464
  C   6.63514258095633     -0.76916924991134      0.15752336297303
  C   7.65377147278287      0.17817102063807      0.00755463983878
  C   8.54007345072817      0.99827029955761     -0.12739337811486
  C   6.87808101163354     -2.11096956829396      0.57458401052051
  F   8.17059956028243     -2.39878399547909      0.88911495786232
  C   5.93213639595356     -3.08292217867391      0.70419756137930
  C   6.33178616748198     -4.45651523010690      1.17349144739801
  C   4.55734486103686     -2.77428867866493      0.43041142227828
  C   3.58953405344418     -3.89654308993520      0.22995811321933
  N   3.58265358689164     -4.53651006056099     -1.12206134299941
  H   1.14158836984775     -1.15644682280292      2.73150014774293
  H   2.46879720267009     -2.22655704078933      2.23704042964819
  H   0.94170150794648     -2.22075828445881      1.33600034254409
  H   2.89821437266827      0.13020523619137      1.56797809035991
  H   1.39035978624988      0.16183706309783      0.65732939572456
  H   1.31693536071131     -0.75681096112694     -1.50826698789654
  H   1.67019900199875     -2.43160983764524     -1.06245816283967
  H   2.74780307277963     -1.56175791271582     -2.16688562252049
  H   3.99877012652647      0.74805736561980     -0.64822415403876
  H   9.30732024020101      1.72569680033743     -0.21994869699227
  H   7.40218209915178     -4.50540353693684      1.36035154077048
  H   6.08291426811982     -5.23068436100218      0.44020476305920
  H   5.81033191161147     -4.72088400878608      2.09914087732213
  H   2.56523569554514     -3.57799134035468      0.41797711885199
  H   3.78498342373418     -4.70327243859708      0.94000357708525
  H   3.45761816591765     -3.79606630626339     -1.80674967700802
  H   4.52435253988709     -4.87635894051028     -1.29905907422353
