28
Coordinates from ORCA-job 25004optt
  C   1.02747887528086     -0.03541092747299      0.03928495000634
  C   2.53606211780180      0.17800201428962      0.01220168549874
  C   2.96438908853867      1.16854804717200     -1.04254564280109
  O   2.49486572820307      2.51681462102734     -0.77086142564290
  C   3.78588961633112      3.05826873019096     -1.09278856247035
  C   4.41471703835380      1.66298795568491     -1.03851607505985
  N   5.30755300645200      1.21110191028828     -2.06271398501135
  C   5.32012056958301     -0.24221992698434     -2.15562734579815
  C   6.59196322081041      1.85064567053099     -1.94756226068757
  O   6.70235166562764      2.77541402278161     -1.10620293944931
  C   7.65022109763698      1.44690209799103     -2.82097230865938
  O   7.60467802104596      0.59421455306001     -3.75044799907528
  C   3.69926714497278      3.77833784407183     -2.42984214356834
  F   3.12340964930735      3.04180526084229     -3.38658254060050
  F   2.92231928913631      4.87848681522562     -2.28779953554015
  F   4.87369029732413      4.19505729566239     -2.88033300876312
  H   0.73906358041154     -0.73179836999766      0.82827599751792
  H   0.67474632702364     -0.43909992592094     -0.91199110755058
  H   0.51419083491225      0.91096108791959      0.21310926721366
  H   3.05555166491838     -0.76473931099480     -0.18512507242592
  H   2.88550480468854      0.54046390945434      0.98234955467749
  H   2.62930658612457      0.85910953572745     -2.03849565702862
  H   4.15355544735396      3.77640151331533     -0.36112039970126
  H   4.84753663829696      1.53587527390276     -0.03595997846124
  H   4.32569252666755     -0.60598423887576     -2.42709172143176
  H   5.60806314372017     -0.70503114412171     -1.19634641257289
  H   6.03251175786068     -0.53562635881747     -2.92066355394597
  H   8.57930026161574      2.00051204404727     -2.60863177866850
