33
Coordinates from ORCA-job 25003optt
  C   0.73811310194355     -0.39626184800376     -0.00071265499695
  C   2.22642161712747     -0.18996696203757     -0.25689191568051
  C   3.01720840052176     -1.48947791804991     -0.16012034938455
  C   4.50629174156996     -1.33450059386560     -0.43649081021236
  C   5.16451433623518     -0.31604803408483      0.51814801751154
  C   6.68509413687760     -0.58656323315563      0.61663787318603
  C   7.00274023640352     -1.71487131454568      1.62589317423314
  C   7.25952473311914     -2.98343352936830      0.77442771644795
  O   8.64134524229720     -3.26183162244561      0.62784248388722
  C   6.62139532066721     -2.62305178730858     -0.56194440135863
  N   5.13241719239096     -2.65855414284285     -0.41754584710709
  C   7.13070571606586     -1.19128269975768     -0.74656747714404
  O   7.05538153328082     -0.53715237327078     -1.83742349581462
  C   7.40310902617056      0.67758319620559      1.00330300556576
  F   7.17763718227349      1.71411184111990      0.18832332833917
  F   7.01786451170339      1.10962308532534      2.24140333227675
  F   8.73478584047410      0.52648350332640      1.07492052440950
  H   0.18009125316934      0.53902727816267     -0.07506244356895
  H   0.57186594124664     -0.80650016123143      0.99827211179303
  H   0.31329321201876     -1.10014090604013     -0.71983985124593
  H   2.62158115580863      0.53445050263160      0.45940727731515
  H   2.37612506538807      0.24615206409965     -1.24914046140295
  H   2.60897091876192     -2.22299954426805     -0.86210923119852
  H   2.88673961666080     -1.91073049067801      0.84693398110037
  H   4.64401312198282     -0.94999645083437     -1.45053914730004
  H   4.70212163225660     -0.36681773470205      1.51349082716768
  H   4.99176447866020      0.68911620781168      0.12723280375657
  H   6.17790553292096     -1.85661184297075      2.32788400041672
  H   7.89789158780066     -1.50242043663412      2.21096828283559
  H   6.82352135457708     -3.87641088008838      1.23150893751053
  H   8.96565244795551     -2.54324015986112      0.05849170361078
  H   6.93080883580037     -3.28598184866822     -1.37161938666791
  H   4.87710397586973     -3.13370116396941      0.44491809171955
