33
Coordinates from ORCA-job 25005optt
  C   1.68564267298625     -0.76188477748169     -0.66301619997625
  C   2.87851910625609     -0.04149848623190     -0.02550446023638
  C   3.14014533699246      1.28866040560642     -0.66101429571646
  C   3.65292167578237      1.57253353922705     -1.96942479859952
  C   3.72146939443262      2.93027605613805     -2.26976083088519
  F   4.20938749626505      3.23741166182655     -3.51033961350395
  N   3.38814272086736      3.95339418279038     -1.55020235963422
  C   2.86482779217583      3.66082242667706     -0.28409331355694
  C   2.74587140265918      2.34384435513881      0.13982806239341
  C   2.18544047105667      1.82111804330570      1.43567948875871
  O   2.68653127707105      2.41858094920663      2.62631708846372
  C   3.94373655220455      1.83894574682352      2.92987808925770
  C   5.07745964253530      2.75972013843336      2.49263059580629
  N   6.34914559634155      2.24375226864178      3.00737730118110
  C   3.98955581979267      0.46966466117906      2.22430104032040
  C   2.65720616668608      0.35070974504033      1.46303143631943
  N   1.73968139284161     -0.47601117004090      2.25334348175730
  H   1.86051992634003     -0.87638725564480     -1.73405170631720
  H   0.77343394976354     -0.16998172825847     -0.54655840704835
  H   1.51827289011360     -1.75511145228261     -0.23349456695761
  H   3.74774244140684     -0.71425793697470     -0.10439470133777
  H   3.96759151192899      0.82487821576066     -2.68265944960115
  H   2.58381526168337      4.50064554509237      0.33685781687668
  H   1.09694870602068      1.92578642269189      1.48932306853506
  H   3.98659397390352      1.72955619216846      4.01999575908011
  H   4.84376603387244      3.77642844158640      2.82850750706434
  H   5.11625939301935      2.77801310271875      1.40212846458147
  H   6.40071931179010      2.37323660429686      4.01163085735130
  H   7.12839634763596      2.74757636800432      2.60381003280050
  H   4.09989502139299     -0.34935845919685      2.93621779341651
  H   4.83444958168270      0.44116871310743      1.53626302593333
  H   2.08788296374183     -1.42904645493967      2.29165362185214
  H   0.83402816875719     -0.51818606441034      1.79774017162146
