25
Coordinates from ORCA-job 2500optt
  Br  1.46401358394817     -0.01345109151772      1.17555009142057
  C   3.17591495505114      0.00465582236277      0.36185014758550
  C   4.04410820182739      1.10186459582794      0.49384452410724
  C   3.80257007707573      2.56104038951136      0.73907145865465
  C   5.14948898898051      3.01733393188185      1.31103555971975
  C   5.91209624450058      2.42671222480776      0.11598606694136
  C   5.14600067357423      3.16638420190296     -1.03395920572565
  O   3.81479572948460      3.26754472269731     -0.54947113098255
  C   7.38966003555475      2.57716103828427      0.02588227450882
  O   8.05969775425888      3.30337196495405      0.71615527362785
  C   5.37571745330633      1.01107946114088      0.07535235875756
  C   5.92766540167646     -0.12396629679513     -0.46996671688292
  N   5.06542010238428     -1.24379770573920     -0.48226421867222
  C   5.28260173945211     -2.52949224621024     -0.86106457790574
  N   4.20772178900829     -3.25104489978088     -0.70229232573372
  N   3.22727790479228     -2.43721215277999     -0.20428849006263
  C   3.74068672595258     -1.22410776547042     -0.07743345165612
  H   2.88944581110782      2.83780631173948      1.25671983718479
  H   5.41458476827425      2.54166390195362      2.25147328793713
  H   5.23857293433642      4.10209263468448      1.37774539612160
  H   5.18322586497882      2.58957971958386     -1.96140546135860
  H   5.54901774974369      4.17139039395064     -1.19825806860357
  H   7.87001989622085      1.97323993397621     -0.77126397653595
  H   6.94672005528293     -0.28469752307824     -0.78036182706438
  H   6.23097555922682     -2.87915156788763     -1.23563682538276
