37
Coordinates from ORCA-job 25016optt
  C   2.13426599371592      0.44182989079282     -1.51169040943945
  C   2.49953104704264      0.19162164147721     -0.05012398573158
  N   2.96280583383837      1.38532212007297      0.66732697721046
  C   2.00697289487595      2.46929616999649      0.71901407042457
  C   0.69773415693875      2.06180181718223      1.38607238423098
  C   0.87439577340699      1.40445539072448      2.75151865753894
  C   1.74245659907509      2.24869408678252      3.67949614540738
  N   -0.46006899387100      1.11572479855864      3.29474527373303
  C   4.27742440708517      1.76923913188283      0.32331298452224
  C   4.70928194239605      2.96823415705844     -0.15022415756152
  C   6.09116078746070      3.18477020172659     -0.36479891020319
  C   6.93951691165335      2.09332532372651     -0.15830698350973
  F   8.26732725947902      2.23455252559974     -0.43465849529080
  C   6.52187025566659      0.84449664123139      0.31762755410615
  O   5.15473221828194      0.75023595316737      0.64437232667053
  N   7.26255369635909     -0.19983818283063      0.51904069847896
  C   6.59968226561134     -1.38589395091816      0.99571222827754
  H   1.94438636692027     -0.50185348858249     -2.02576596565173
  H   2.95718260430479      0.95284788136160     -2.01543633125603
  H   1.23774134994157      1.05974382836079     -1.60238141764431
  H   3.30697119504566     -0.53584268185992      0.01590568270318
  H   1.64315648895689     -0.22799181379444      0.48390724446444
  H   1.78534363616392      2.88559155403859     -0.27815487306473
  H   2.47163017579184      3.27736772382311      1.28636992957416
  H   0.12028590614897      1.38852477166303      0.74754774665204
  H   0.08896995134058      2.96594690077616      1.51101323887610
  H   1.37431898953015      0.44474236531234      2.60443569220948
  H   1.31995777617679      3.25313691114466      3.78793081056784
  H   2.75818520965728      2.33362057060362      3.29120837856902
  H   1.79423320855923      1.79304835038231      4.67080308432142
  H   -0.95255368854539      1.98835683526476      3.46244662219035
  H   -0.37607323270276      0.65769518206305      4.19577311930977
  H   3.98712564408883      3.74198055162186     -0.37240763809600
  H   6.47959742728417      4.12476659580084     -0.72626472403056
  H   7.34185486970348     -2.17692139831138      1.12814061644083
  H   5.83527135504112     -1.76602889844794      0.29848427653826
  H   6.08777171757657     -1.24559945745207      1.95900814846191
