27
Coordinates from ORCA-job 25015optt
  C   1.60275511923909      0.58571266957474      0.52722234360402
  C   2.98719683320255     -0.03772259201026      0.26028901362267
  C   3.22750957754254     -1.14165818959272      1.19768087559878
  C   3.38257335652877     -2.06814357218631      1.94555428364497
  C   3.13390434721227     -0.50145387586517     -1.16083729631788
  C   3.28881838221748      0.21974060625800     -2.35212477153201
  C   3.17523926680915     -0.75311739072263     -3.41104308382534
  C   2.95260332332806     -1.97591872087193     -2.84940488227137
  N   2.90037484559968     -1.82660898779024     -1.49423858904384
  C   3.49422215522482      1.61140534866245     -2.53708512386515
  C   3.55192187675232      2.29383130506027     -3.75633397894071
  C   3.78702984977256      3.67330670044271     -3.89281412543844
  O   3.83268094855349      4.34811379006484     -4.95032093755035
  C   3.98432418606725      4.31052735864764     -2.57090470768123
  F   4.25512473377562      5.62913429243080     -2.53642775759106
  C   3.90035461509338      3.65267671877674     -1.41593405860765
  O   3.63388719177481      2.32092183132898     -1.33217631466699
  H   1.52435512637013      0.94191438571739      1.55663432675930
  H   0.82250918655192     -0.15530609234408      0.34828803995026
  H   1.46430920360455      1.42048984376624     -0.15795852299014
  H   3.73982163563491      0.73012146797544      0.44788495076194
  H   3.53985990314922     -2.87263656765804      2.62207850631067
  H   3.25642133422518     -0.55099357180942     -4.46609055150800
  H   2.83926601991522     -2.94475851597755     -3.30743967795946
  H   2.88976015393958     -2.56987874701695     -0.81787653342958
  H   3.40164222846041      1.72304752472987     -4.66313072077276
  H   4.03353459945499      4.12525298040919     -0.45249070626061
