27
Coordinates from ORCA-job 25011optt
  C   2.01982081981583     -1.23176653528333      0.58993243014611
  C   3.35675790858685     -0.58400688462138      0.77042483317265
  C   3.56686521790035      0.73571813586336      0.65142270738956
  C   4.86866331885312      1.29707929376635      1.02793490069005
  C   5.67024454774585      2.07266205326593      0.29664732676516
  F   5.29263910869201      2.69749413744553     -0.84053189663241
  N   7.00365280908835      2.21670386727954      0.60199563547333
  N   7.67584285139845      1.04299189896112      1.03247937288627
  C   6.90718799641823      0.27769679097617      1.84488507895172
  C   5.56494270556188      0.68702409799059      2.20034409803124
  N   4.90913529438334      0.45897692926292      3.28619489207662
  C   7.45705774007741     -0.99649541050172      2.21567492785048
  O   8.82211438793510     -1.09968828941391      2.01958356744204
  C   6.85223930926946     -2.13561572689700      2.68136411563056
  N   5.53279467228169     -2.47170617955675      2.94900876621652
  C   4.49633152359628     -2.11510288333996      2.29398963025297
  N   4.43322026853084     -1.46083009695972      1.06598465713191
  H   1.27442356326305     -0.49416197334948      0.29455485182713
  H   1.68206821764876     -1.69303771055539      1.52191664504708
  H   2.07187460972123     -2.02039380533247     -0.16369985434302
  H   2.76525114052299      1.37396150351570      0.29863065714728
  H   7.53240872528666      2.67245969337892     -0.12478349367144
  H   5.50856873123167     -0.03756646560956      3.94563141705272
  H   9.08089947355285     -0.26161858413086      1.60688489673221
  H   7.55867935786554     -2.89017572604551      3.01336449557028
  H   3.52416624632369     -2.41346272117592      2.67749556889600
  H   5.33414945444843     -1.09913940893316      0.77666977226697
