36
Coordinates from ORCA-job 25017opt
  C   0.95842713043195     -0.32746398385530      0.27506906866063
  C   2.45304119191522     -0.04687749482644      0.14861711237242
  C   2.79762739779675      0.49881680170427     -1.23571923740039
  N   2.29966779206917     -0.31112554708455     -2.35105288771797
  C   2.61392475020331      0.33384498017213     -3.60685729345367
  C   2.84344195291021     -1.65329028740132     -2.32806956251343
  C   2.95500374823445      0.94635792393494      1.21920183994628
  C   2.54041421110508      0.51171997511895      2.62986035661445
  O   2.97111611588201     -0.79620046340170      2.95012759352414
  C   4.45219462035301      1.13371997599404      1.16428451923183
  N   5.20177509377824      0.08935082592446      1.60500407916073
  C   6.56172681505365      0.25117062461123      1.58117502114560
  C   7.12231052515639      1.38675040549806      1.14544185027148
  F   8.46229657491526      1.59656121363705      1.11582375600990
  N   6.40125676757389      2.50649259983013      0.75560829987626
  C   4.97332194507082      2.35859058809900      0.67878850241718
  N   4.25327171409369      3.32923728515275      0.17186174264093
  H   0.60109303572185     -0.91805061970407     -0.57000411287789
  H   0.39489680166745      0.61138731683591      0.28281536724603
  H   0.74145654811382     -0.86822207347899      1.19626387540648
  H   3.00094524546639     -0.97895035570836      0.31251298836889
  H   3.89203569331357      0.61510511942009     -1.30836655601106
  H   2.37268490194151      1.50188219861322     -1.33704308501419
  H   2.18921835970449      1.33825214296085     -3.62030885553523
  H   2.18889856333702     -0.23555588314140     -4.43674256237870
  H   3.70248962896521      0.42433476016875     -3.77098675815325
  H   2.50918066847333     -2.18625079610108     -1.43852258639586
  H   3.94787924924152     -1.65420113193379     -2.33106615593938
  H   2.49639810907484     -2.20259221863032     -3.20602493016566
  H   2.49702342153033      1.92038307196814      1.02290062333466
  H   1.45256361086192      0.52948147186243      2.73715968219118
  H   2.95312821617387      1.23775574388987      3.34230815309844
  H   3.89822006905308     -0.82569540996176      2.63062782205009
  H   7.18853173137581     -0.55321856423857      1.94518668940475
  H   6.78389793256826      2.98293876991412     -0.05493847767356
  H   4.84963986687249      4.12856103415726     -0.02893588174211
