32
Coordinates from ORCA-job 25026opt
  C   1.01890771072366      0.31007151797929     -0.04681159359986
  C   2.52443617280316      0.15083601885473      0.09204068582168
  N   3.18139037997387      0.05648126351732     -1.23553790681254
  C   4.06863425495704     -1.12426828106319     -1.21886862280206
  C   4.34248796371800     -1.42772573128677      0.25289155348249
  C   5.46019588491407     -0.52228208277217      0.82205524983057
  O   6.16772728330999     -1.27227643244892      1.80154303259590
  C   5.90668945752362     -2.59979910653874      1.52403082009898
  C   6.48287229454942     -3.65884092738189      2.23144815439127
  F   7.56740564152593     -3.44235903933749      3.02504377828613
  C   6.08231980109242     -4.98946498444497      1.96790949028582
  O   6.53821061285292     -6.01582920817707      2.49265803443504
  N   5.08092010026809     -5.11798371629649      0.99041655535709
  C   4.34861592220293     -4.05362715619088      0.41142515647261
  C   4.88518617726734     -2.77655228770235      0.61724889904903
  C   2.94309121394966     -1.12314237878673      0.83388545769103
  C   2.87661440543182     -1.06334698221282      2.34768045651002
  H   0.76939570297264      1.23267713280562     -0.57406505504982
  H   0.53501877311446      0.32962240485862      0.93283493158337
  H   0.61526941678491     -0.52612771117797     -0.62058395985313
  H   2.91636042985076      1.01755164396287      0.64120931250684
  H   3.72869108611201      0.88864191126615     -1.40688138347455
  H   4.98001095949087     -0.93867853881199     -1.78865831318903
  H   3.55831824724419     -1.97643290399660     -1.67603893908554
  H   5.09520243386343      0.39179662880062      1.29589847970320
  H   6.15626063989596     -0.25132362687941      0.01840659022726
  H   4.68774325953776     -6.04475124247077      0.97836983819042
  H   3.72866291735554     -4.31419081145363     -0.43674028188665
  H   2.29549638156796     -1.94170500909390      0.49655762932776
  H   3.51468000496133     -0.27178839495240      2.74713582679326
  H   3.21859591397036     -2.01345715360964      2.76381879432751
  H   1.85558855621360     -0.88372481495832      2.69367732878583
