30
Coordinates from ORCA-job 25029optt
  C   1.10980998076462     -0.01624210115957     -0.00206125442086
  C   2.62206907661184     -0.08074432650686     -0.12630743737069
  N   3.13726267163018      1.08887944085639     -0.81206336976840
  C   4.59295472364684      1.13557700091020     -0.85373268324703
  C   5.08160791868616      2.41542930444782     -1.50840544656349
  N   6.52421970404729      2.46819055645715     -1.43770739658381
  C   7.08366313031081      3.45621236827498     -1.99833689564709
  O   6.37314176882812      4.43529541268159     -2.58150374727997
  C   7.05762769324844      5.41914955434434     -3.29371044736190
  C   6.51428053859686      6.38765792164767     -4.10243418004281
  O   5.17984912906192      6.57061813785350     -4.42129437728948
  C   7.58906821060311      7.17982825543593     -4.57769989803784
  C   8.78155952361147      6.68397450906961     -4.03808488082999
  C   8.45864139085764      5.56519108348283     -3.23202248825326
  C   9.11877368960404      4.69701200577997     -2.34276100529062
  F   10.40554897448849      4.33374604755405     -2.55211130166066
  O   8.42107650509799      3.52327536895563     -2.00482947275900
  H   0.71518584716314     -0.91108547256770      0.48108162502955
  H   0.65346327960867      0.08214254985355     -0.98743968501383
  H   0.80921754622170      0.84727184081265      0.59625330900220
  H   2.90900899610354     -0.96163479738413     -0.70819923569698
  H   3.07176160988794     -0.20857818478818      0.87242958474094
  H   2.79067104688671      1.92765828189765     -0.35664959455183
  H   4.95027152019001      0.27792805766664     -1.43025426034932
  H   5.04457370593400      1.05600141211997      0.14640702427128
  H   4.62911561160412      3.27533336850946     -0.99279036017262
  H   4.71686646295989      2.45393183397474     -2.54133638568938
  H   4.68777221778809      5.85771022547218     -4.00408158079681
  H   7.48404930469669      8.00975880325475     -5.26030124564447
  H   9.77388822125948      7.06951154109302     -4.21205291272177
