20
Coordinates from ORCA-job 2502optt
  Br  0.79317313125755     -0.09526536808890      0.16047503582309
  C   2.68950781188030     -0.03344302328748      0.06788905680054
  C   3.47689607155318     -1.17590493942235      0.02526381681886
  C   3.02113696221374     -2.51272891420847      0.00316162719987
  C   3.87668440367638     -3.60647712119596     -0.01664984968169
  C   3.02762341754284     -4.77241635082642     -0.03668171435127
  C   1.76781805924200     -4.30088979114265     -0.03140446857058
  O   1.73011291295304     -2.93850683368173     -0.00716863636676
  N   5.20787671558466     -3.51832126515873     -0.01527200801635
  C   5.69789105041286     -2.28252524540279     -0.00531850247762
  C   7.18647737067104     -2.17989955089418      0.01276923337707
  O   7.92398358365464     -3.13467977077653     -0.03903581371368
  C   4.92886586528720     -1.07429825667482      0.00187406954831
  N   5.62680323571877      0.08380779797612     -0.01595215859773
  C   5.14386661036704      1.30470343912634     -0.00532148753412
  O   5.73532773371444      2.36442324367080     -0.02890879817676
  S   3.29609535937420      1.56976798908837      0.06187819308842
  H   3.33910075008282     -5.80272784579000     -0.05320037726090
  H   0.80563466181935     -4.78375515474279     -0.04356286209640
  H   7.58212429299389     -1.15886303856780      0.08416564418773
