29
Coordinates from ORCA-job 25032optt
  C   1.02575125514531      0.26674244685870      0.06011613602657
  C   2.53595090783884      0.11528628832262      0.22981019743491
  O   3.08621728551322      0.19360391303818     -1.07206335852813
  C   3.02307726278280      1.23083212855079      1.06802679000973
  C   3.41951200292392      2.12113402437528      1.76534849408635
  C   2.93343452202662     -1.24009016666915      0.93705911587280
  N   2.31192791270742     -2.40939426997071      0.31845745299222
  C   4.42912424903363     -1.39998345447406      1.02881535098656
  C   5.15139770744347     -0.77873079710772      2.08303678759959
  F   4.50117359670350     -0.57330558091997      3.27435503164548
  C   6.45533964541993     -0.39453201442316      2.00146023714513
  N   7.10404327111172      0.23488334973179      3.08892200556163
  N   7.21981098653919     -0.57905487446758      0.88967739213813
  C   6.60632970987741     -1.22938960585881     -0.12052807010095
  N   7.43886231593948     -1.61646592831144     -1.19159442955514
  C   5.28313286866877     -1.58187673697627     -0.10514089246090
  F   4.82612094856206     -2.33419633904523     -1.17850651482410
  H   0.79470310631932      1.26856657584707     -0.30285663128644
  H   0.52012579687029      0.11307082379239      1.01474570032489
  H   0.66549873137649     -0.45536833226903     -0.67178547944059
  H   4.03737872274407      0.01630069567511     -0.99055696983407
  H   3.82037754854302      2.87466597399701      2.39856711743167
  H   2.54968483286482     -1.15473934389746      1.95698735128262
  H   2.75852436375305     -2.60421908812363     -0.56981634837064
  H   1.32632894043298     -2.25434866806697      0.14794573458738
  H   6.66585933247083      0.00454193794508      3.97033837668577
  H   8.08185722461871     -0.02809064035570      3.09175285070665
  H   8.22023820764410     -0.97878471529424     -1.25718795027334
  H   6.94021674412479     -1.69005760190287     -2.06638547784384
