29
Coordinates from ORCA-job 25033optt
  C   1.18196346075251     -0.56538100792228     -0.33009389802966
  N   2.44450953464467      0.12627487646045     -0.11134113388763
  C   3.38757874754778     -0.48235201797108      0.77027837736083
  C   3.80660310561858      0.22003349877377      1.95292287001743
  C   3.53511078211514      1.67430024173790      2.06074288218304
  O   4.21078765619836      2.43674702215456      1.04754056973089
  C   3.78891203969330      2.24037498850203     -0.28670424107784
  C   4.95167912872081      1.79460949941501     -1.18458218208755
  O   5.68493012964266      0.67365635108228     -0.78222522594997
  C   2.49735528282452      1.42832855199155     -0.49417789397172
  N   1.47010698412133      1.96693863986759     -1.06269116797659
  C   4.67660076425165     -0.44872126036687      2.81014455907634
  F   5.14032528379416      0.19570246646773      3.91470392941582
  C   5.08347145909167     -1.73079798519685      2.60747737134041
  N   4.57718394598700     -2.40722913397159      1.49468971970228
  C   3.77856961270312     -1.81532492436616      0.50104726980615
  O   3.47604994613555     -2.50465174203692     -0.48972302543403
  H   1.33658594298555     -1.62194720876369     -0.13854372510835
  H   0.85747866493119     -0.41990677173480     -1.35852464669321
  H   0.40718581620856     -0.15446665419046      0.32644825202784
  H   3.90546604989336      2.06640003299131      3.00527705216455
  H   2.46099475587298      1.89026880694499      1.99130904931968
  H   3.52526745395554      3.23186740131921     -0.67397435469790
  H   5.65898757429755      2.62756790315633     -1.22237783566805
  H   4.53450811988623      1.66227274426375     -2.19410340667770
  H   5.08292489345418      0.02037518578699     -0.38985595218719
  H   1.67668714740394      2.93058036000392     -1.29754745962277
  H   5.72294482477408     -2.26598802875916      3.29050848061312
  H   4.98123089249390     -3.28353183563954      1.21037576631178
