30
Coordinates from ORCA-job 25040optt
  C   2.76335327055636      1.32959356349347     -0.53624998107349
  C   2.47064639568662     -0.10338879938918     -0.11345848164606
  C   3.10242808560521     -0.45681627139283      1.23706715613086
  O   2.54183786472304      0.38774679787446      2.20994745973164
  C   2.78158486303911     -1.92512973333100      1.61133213531862
  N   3.21124404202190     -2.84664893564512      0.68292858479707
  O   2.23847854887885     -2.25536871482788      2.64533868106263
  C   4.61102468048268     -0.31180468099475      1.22297686424807
  N   5.18767464609966     -0.18753154720115      2.47569271007398
  C   6.46664942666866     -0.24383663679756      2.48556199832254
  F   7.11275299326475     -0.11910513001405      3.68096877668392
  C   7.29317253674240     -0.41516707428379      1.37236290367997
  O   8.66998085646135     -0.63627077875535      1.47507034799184
  C   6.60001895323121     -0.89677538267055      0.23631536971689
  N   7.35495107948287     -1.38867645126075     -0.81244113304679
  C   6.71579377666152     -2.19665646131621     -1.82071140388047
  N   5.29206717146826     -0.87663014783117      0.15160652214305
  H   2.23865931003183      1.57314597446690     -1.46323594306218
  H   3.83315380362352      1.46672444362294     -0.69461169228279
  H   2.44416838110831      2.02618200373758      0.23886373428195
  H   2.83994013294321     -0.79883328061821     -0.86643345430148
  H   1.39226978092599     -0.25998296403574     -0.01712831164833
  H   3.15217519557030      0.35909947960748      2.96011822294915
  H   3.99192862986039     -2.54207857015821      0.10622233039511
  H   3.26659846649799     -3.78664759733650      1.04543824487129
  H   8.87861153419988     -0.67919162674143      2.41424289602327
  H   8.28460368981225     -1.65973088113958     -0.53207680557800
  H   5.89587471042255     -1.63532332669840     -2.26603097653119
  H   6.29632122477826     -3.12869319174160     -1.42005045251485
  H   7.44403594915075     -2.43720407862179     -2.59562630285625
