31
Coordinates from ORCA-job 25048optt
  C   0.99769136248077      0.03225171969022      0.10612516595082
  C   2.51975497076546      0.03542985100376      0.04298375569888
  C   3.10075081243173      1.32971066038038     -0.54855345220063
  C   2.59999916789244      2.49183902105105      0.18930456614707
  C   2.18958748511678      3.41012290182067      0.84251499706962
  C   4.64555489088449      1.32603785016785     -0.53470612699605
  C   5.24753033909244      0.06540066743650     -1.15323559742838
  N   5.18248489268929      2.52185632341548     -1.17677249317003
  C   6.33375228755867      3.11180851763184     -0.58483182130693
  O   6.88244386352482      2.50881618853160      0.34096344867989
  N   6.73629284792761      4.30118228007195     -1.06472847230633
  C   6.04988588484591      4.85102195314625     -2.07639655424091
  O   6.47551522414385      6.10721366386897     -2.43818683307119
  C   5.01227055897665      4.29679744972801     -2.76671670708819
  N   4.41733885971061      4.90120999364978     -3.91488181726624
  C   4.54972572414301      3.05032606542011     -2.29335320709028
  F   4.29515650771959      2.06819507809832     -3.27742993739297
  H   0.62379723128608     -0.92183267346377      0.48196102021466
  H   0.57140175736633      0.19507747234103     -0.88645191777450
  H   0.63314222765404      0.82637308191357      0.75788113567846
  H   2.85498680961748     -0.79917370396676     -0.57398311910667
  H   2.93714136104261     -0.11447454477112      1.04336212466878
  H   2.76278880205305      1.41786988823642     -1.58599047924331
  H   1.85899842137831      4.25299079034122      1.39871263739097
  H   4.97318255696168      1.38241810615722      0.50353104597936
  H   4.85294783252450     -0.10227238986903     -2.15710684142079
  H   5.05751322238278     -0.81429546639635     -0.53620961927686
  H   6.32559881409112      0.20789610135829     -1.21730441699264
  H   7.18841751853173      6.29375136856547     -1.81372925820971
  H   4.73044554125507      5.86170966790507     -3.98569400527662
  H   3.40690222395094      4.89974211653592     -3.82007722061924
