31
Coordinates from ORCA-job 25051optt
  C   1.11223187793339     -0.42886407311392     -0.46786724469440
  C   2.54714444973432     -0.12621729871174     -0.04228246824519
  N   3.29825867402850      0.61012739331872     -1.04684328450875
  C   2.98077698947508      1.98050731415853     -1.11178104413234
  C   3.18398012105849      2.70107297522849     -2.29391427063059
  C   3.01366793694519      4.09751751553216     -2.43024672074366
  F   2.64582843605899      4.77449025590431     -1.30599062727245
  C   3.20147982209606      4.76371900031408     -3.59509554610633
  C   3.01028760087328      6.23731302572546     -3.75038356839153
  C   3.62097415715963      4.00941695058525     -4.77710873897106
  O   3.81133866419333      4.60929746803842     -5.85320459867415
  N   3.80173294003094      2.66025070528007     -4.65086799541380
  C   3.58805771213998      2.06524216233468     -3.48471125052054
  C   3.81467071510825      0.61813792949793     -3.40046612135037
  N   4.22755200093895     -0.00350037924716     -4.59901720171554
  C   3.64010726958973     -0.05579578557183     -2.24122940187847
  C   3.91934804096786     -1.52540819211265     -2.14121752071356
  H   0.56379005215295     -0.93677631382645      0.32820804968537
  H   1.10007831020151     -1.06014174485514     -1.35853063910203
  H   0.60123333861146      0.50266893514157     -0.71433902848594
  H   3.07762044648443     -1.04544128412830      0.20955410222843
  H   2.54266420517637      0.48965757873934      0.85951275298681
  H   2.77639391966521      2.46255689516434     -0.16760879120209
  H   2.69965331093140      6.70742092303288     -2.81825847667450
  H   2.26502416271079      6.43171018094002     -4.52550746697133
  H   3.93487572689696      6.69756004608510     -4.10626110869541
  H   4.35724817561555      0.73927311094613     -5.28473563968116
  H   5.08370080118784     -0.53069465114529     -4.49706520791666
  H   4.10177171179675     -1.93232582110126     -3.13287980840720
  H   3.08113246182965     -2.07928841973651     -1.71202306684045
  H   4.79337596840707     -1.72348640241727     -1.51083806696102
