27
Coordinates from ORCA-job 25052optt
  C   0.99838763893301      0.07803672810691     -0.10805479048567
  C   2.50122865349914      0.06996370166733     -0.05869050578396
  C   3.18650844174014      1.24047493635822     -0.01516504197521
  N   2.59594283312939      2.52171228927210      0.03255809088502
  N   4.59413462792783      1.23766784753270      0.03390423095857
  C   5.31037139794544      2.38416954088416      0.23384032973561
  C   6.65639722653582      2.36635613165367      0.18899661931540
  F   7.32429627013397      3.51928270568312      0.44334118879844
  C   7.44718113182131      1.19791281318368     -0.09414586029589
  N   8.75469064174420      1.14915811340346     -0.14006611898628
  C   6.65179809866222      0.03064902367306     -0.28527934258345
  N   7.32129789800843     -1.15739087717141     -0.56959111278531
  C   5.26330024881804      0.00983504993396     -0.15769332624590
  N   4.60472743689133     -1.15074469861948     -0.18852957635978
  C   3.24642482684053     -1.15163371825114     -0.07771471541300
  C   2.58585518353787     -2.39478653027149     -0.00355845355279
  C   2.00940953398379     -3.46042801010576      0.06581687597143
  H   0.62913952515617      0.66678482710459     -0.95444698279035
  H   0.55875247277534      0.49394130359320      0.80418167791167
  H   0.62343687643224     -0.93690812702696     -0.22128677424836
  H   1.58986055350229      2.44452258517537     -0.00131793008120
  H   2.90369114415017      3.11218560740288     -0.73705509894556
  H   4.76110738284668      3.28155106180241      0.46833216658346
  H   9.13260023997419      2.07180311529911      0.05798020683180
  H   8.27530665703824     -1.12135694823215     -0.23277493269389
  H   6.78998982164554     -1.96871342346421     -0.28293901696523
  H   1.52216323632656     -4.40104504858733      0.13635819320043
