35
Coordinates from ORCA-job 25068optt
  C   0.93498129006324      0.19129847578015     -0.38402338667464
  C   2.44601447568080      0.12177282495286     -0.27214709205401
  O   2.91456620065332      1.45629255107580     -0.39388502686460
  C   2.95390013293355     -0.49348221753796      1.04211384944675
  C   2.53499661062750     -1.95006593963775      1.29854003805270
  O   1.13716011859519     -2.05196526641129      1.55503584865046
  C   2.89822209153147     -2.88974215391616      0.15696422289205
  N   2.52177236169329     -4.27104529315375      0.47418208547408
  C   2.41530727605646     -5.07042135970386     -0.73048744142697
  C   3.46915352575935     -4.88254879486116      1.39228114735756
  C   4.46360189291452     -0.39568829407731      1.14312774004615
  C   5.34069172358451     -0.33410871513410     -0.00016747621428
  N   6.70731312639714     -0.36592823076162      0.19447397540968
  C   7.13669560252689     -0.32678627290738      1.42082640882171
  N   6.41192423041825     -0.27775279760298      2.57851609573079
  C   5.09646380669276     -0.34573992077566      2.34717657289740
  F   4.33484024460157     -0.36154227764345      3.47751500577912
  H   0.67220384445239      0.75872963072622     -1.27829140141865
  H   0.51975529529693      0.70014438276593      0.48754646808212
  H   0.49382596575284     -0.80189687967665     -0.43350881169349
  H   2.83174009748860     -0.46512280628101     -1.11611828178246
  H   3.88167494706493      1.42096598846044     -0.31245492623403
  H   2.51128915833750      0.09193646895324      1.85430010694076
  H   3.07683281529175     -2.24945364752852      2.20122424658271
  H   0.93657035887248     -2.99447713277576      1.48025941072869
  H   3.96814387344546     -2.80039516120963     -0.08311849310942
  H   2.32509364832309     -2.59223375739042     -0.72451697608986
  H   1.66696004691867     -4.64050435801423     -1.39686925463510
  H   2.10825216467066     -6.08613654532114     -0.47408366875201
  H   3.37131821777958     -5.12878353896611     -1.27684965770592
  H   3.54510287811332     -4.29790522893122      2.30684355979808
  H   4.47529998091186     -4.95595803600508      0.95010506901583
  H   3.12929666966589     -5.88619773424004      1.65326889847421
  H   4.98764622168225     -0.51261395828751     -1.00802308169908
  H   8.21638910520139     -0.33164400396253      1.55924422617354
