28
Coordinates from ORCA-job 25075optt
  C   0.91213596252921      0.47264510296204     -0.42726137222992
  C   2.42854472950115      0.49653545995163     -0.26487095704755
  N   2.92616397702110     -0.86864686115874     -0.06836342762506
  C   3.82243137299313     -1.12879252000309     -0.92356076955882
  N   4.51453872905916     -2.31860470769573     -1.00318867207163
  C   4.13013354308718     -0.07730242692153     -1.96142763648687
  O   5.49069114960966      0.20340066742690     -2.06329897858747
  C   3.31010272198829      1.14991037217608     -1.40319229093627
  N   4.29481490415113      2.07913647751971     -0.95410081392657
  C   4.05903042071817      3.09350899917968     -0.12710306068078
  N   2.79098751816747      3.47255178600061      0.33579529648547
  C   5.13217788447672      3.86917502787206      0.38963684066716
  O   4.96077402767740      4.88939442055632      1.11484780874537
  C   2.51619556169483      1.70214658995570     -2.59040033552461
  F   1.74807134844539      0.76112739958656     -3.18418058375704
  F   1.67390715102349      2.70818541827254     -2.27546544794100
  F   3.31906052656778      2.17891787433501     -3.54615024848570
  H   0.48525752006879      0.00935481291126      0.46276195789570
  H   0.60621658217203     -0.11343696342634     -1.29314363617581
  H   0.50571250499589      1.47970099305986     -0.51984102769767
  H   2.64663455937495      1.06023941583843      0.64117314817654
  H   4.48761923311496     -2.85777837895146     -0.15055336688506
  H   5.44703932590530     -2.18939292642893     -1.37191138135697
  H   3.75676352882334     -0.41778132413201     -2.93226306067515
  H   5.53147208814698      1.08497510520831     -1.57965259447951
  H   2.07413002978339      3.49951983766985     -0.37265943055866
  H   2.88793725652501      4.35528583698397      0.82872618944576
  H   6.13745584237798      3.52302451125125      0.11064785127217
