26
Coordinates from ORCA-job 25083optt
  C   1.69712509375896      0.24364189151291     -0.54022235294621
  C   3.09300519921965     -0.13663715618519     -0.23883514484091
  C   3.74446397240441     -1.25720774684343      0.14821227847747
  O   3.50213611613757     -2.55967618765021      0.47091982231862
  C   4.77315355462352     -3.03433215200339      0.77633905606118
  N   5.73425160101529     -2.18403425215960      0.67625229800971
  C   5.12678053948384     -1.01162365811865      0.27190416613060
  C   5.31954159003490      0.34274169674561     -0.05832098410616
  O   4.06223013828162      0.84270830222884     -0.36594145457175
  C   6.39519351629405      1.24805284706621     -0.12837277583304
  N   6.15788651305945      2.55968480126397     -0.45824935284257
  C   7.17387944358354      3.41353145949388     -0.50699829125102
  C   6.80825164803894      4.82953049636198     -0.87501521880384
  C   8.49487627294229      3.07582380075346     -0.24803600763376
  C   8.77057409825049      1.72539513054539      0.08480161351331
  C   7.73275443967188      0.85345099149152      0.13593041324399
  F   7.96583984399535     -0.43858674480013      0.44269638935145
  H   1.05019844244407     -0.62394244925090     -0.40959943115278
  H   1.58657650595579      0.60178551983394     -1.56915860250288
  H   1.33934018818793      1.04054942953337      0.12016534949508
  H   4.82715394473381     -4.07022685544653      1.06511663600543
  H   6.07840824968348      5.22239390741508     -0.16495029717682
  H   6.34165308426206      4.85019024831916     -1.86161699328662
  H   7.68378026371028      5.48007278447570     -0.88209980021506
  H   9.28276353563147      3.81424169558403     -0.30227643511575
  H   9.77118220459534      1.36947219983296      0.29535511967233
