30
Coordinates from ORCA-job 25085optt
  C   3.59864950485040     -0.03652146716124     -0.84881755609597
  C   2.35829864109054     -0.14050742459655      0.04036487169948
  O   1.50001598180574     -1.15689812161274     -0.45991148724453
  C   2.76842936465646     -0.32953512621014      1.48213056602357
  C   2.67608455984243     -1.54344692143716      2.11107638954662
  C   3.24017408551036     -1.83222861009935      3.38935982391953
  C   3.06081855996636     -3.07468317874915      4.00960883354089
  C   2.90983562796069     -4.16009095322626      4.53777883980012
  C   3.99154176016407     -0.77749104580307      3.98970627500481
  F   4.65057076028294     -0.99506609761181      5.16204533360340
  C   4.06394662050232      0.45750300261661      3.40630228751656
  C   3.42622615949248      0.75496135084579      2.16772634320447
  C   3.60966893332435      2.14663502339597      1.93971921025175
  C   3.00116225437612      3.01205789386367      0.87798192567417
  N   1.56654455516886      3.30158133059328      1.06896910616681
  C   4.35111474605128      2.65852843857988      2.98752889280001
  N   4.68946007786473      1.60683492435162      3.84722544648359
  H   3.32181620621009      0.21699261742493     -1.87414642120608
  H   4.11134042146899     -1.00207398022561     -0.84533621726605
  H   4.29489355471015      0.70661244634226     -0.45919744863602
  H   1.77239045058655      0.77690706206806     -0.06787741300572
  H   1.93169490258755     -2.00115384756357     -0.29193524438704
  H   2.14174478263618     -2.36014464370320      1.63784884539219
  H   2.75251938406569     -5.09350314173117      5.01791211783987
  H   3.11317628721087      2.57846292804414     -0.11761360438773
  H   3.52603141501754      3.97059508191191      0.85931844023890
  H   1.06224389257934      2.41943557678315      1.08088903400159
  H   1.45696988751056      3.66646383704066      2.01099594473886
  H   4.73901092847850      3.65299736320643      3.13517365736046
  H   4.99762569402775      1.72077568266267      4.79517320742141
