24
Coordinates from ORCA-job 25086optt
  C   1.18578284517061     -0.25840964267666     -0.03350647328721
  C   2.66498048913632     -0.08350935815411      0.09731539588715
  N   3.42829891131923     -1.11768807713323      0.38712462487356
  S   5.02506321468799     -0.67414628889876      0.46503637998789
  C   4.68809805356955      0.95381090733667      0.09786394683753
  C   3.35395445105123      1.13941972085472     -0.07647477553152
  C   3.14251624434630      2.58382506111752     -0.39828337743324
  C   4.58282537144790      3.10569991622246     -0.37494066950469
  O   5.46547278649989      2.03724554982342     -0.05007060148911
  N   5.05732199272914      4.23038443676028     -0.58646373803221
  C   4.10222651734765      5.24996794291874     -0.89087908394820
  C   3.53102357493729      5.98631920318366      0.13238971355256
  N   2.61273040855022      6.99142231949353     -0.15651399132619
  C   2.36342752198339      7.11743911212318     -1.43274242092910
  F   1.46242287586541      8.09514260349674     -1.71266911462052
  N   2.80722251549749      6.49450105343410     -2.49188455192697
  C   3.73130367793430      5.49285157290619     -2.20207700729883
  H   0.91050204386989     -1.28696385909208      0.18813196301890
  H   0.86267091151337     -0.01009132595655     -1.04618470171939
  H   0.65981900101898      0.41172049673962      0.64879488577087
  H   2.54942879076823      3.14086085492233      0.32947268794378
  H   2.71164870212009      2.78217023332338     -1.38159530616430
  H   3.81532916524331      5.83928718257312      1.16587394133941
  H   4.17792993339214      4.95774038468165     -3.02971772600016
