35
Coordinates from ORCA-job 25080opt
  C   1.09191341953085     -0.32294288554867     -0.70738140134411
  C   2.19047733982257     -0.29279215859829      0.34869878486319
  C   3.28591209036284     -1.36486860739346      0.20727080959265
  O   4.11431312101835     -1.08118759425136      1.35862540068514
  C   5.02030596650339     -2.08319542068561      1.74077793707769
  C   4.15827355999888     -1.16589781852470     -1.05634489821950
  O   4.37505723559853      0.20907257539075     -1.36625085435572
  C   3.66276618557222     -1.93327735808654     -2.26991816969479
  C   3.61143188806458     -3.41977490581096     -1.96181307609071
  C   2.85319346903078     -3.70484438005703     -0.69443791124011
  N   2.34890353837093     -4.97964835624897     -0.62150218926358
  C   1.69739807691330     -5.25729362072059      0.50581965805750
  F   1.22106813757694     -6.53837768661144      0.55427239272501
  C   1.45153427742425     -4.44009495566272      1.56833024374273
  C   0.70911621220579     -4.87992227361168      2.79088739022884
  C   1.94146741700397     -3.09711146608961      1.45857101848436
  C   2.68784074053635     -2.75871380172411      0.29168315110321
  H   0.26968614054440      0.33299907136054     -0.41551984390471
  H   0.70134182772791     -1.33692536319855     -0.81343225937979
  H   1.43387570457909      0.00794822413971     -1.69165519901795
  H   1.73864378624352     -0.45977237052543      1.32561162041226
  H   2.67677636333767      0.68445345587059      0.39352020070101
  H   5.56092196195499     -1.69377873007288      2.60415385528905
  H   5.75126928027372     -2.31276162038500      0.95601717407198
  H   4.50462572756110     -3.00636634755414      2.01809456733633
  H   5.15573468566089     -1.54237746311464     -0.81953051154186
  H   3.52203810027223      0.59673547608946     -1.58469759467698
  H   4.33699606523915     -1.71946160477093     -3.10427778333487
  H   2.66581160645534     -1.58572744214302     -2.55383110928796
  H   4.63216421312694     -3.81872004454055     -1.88224032555254
  H   3.13218314360984     -3.97338805036802     -2.77239840248732
  H   -0.18242151451528     -4.26126457427708      2.94840566142088
  H   1.33189747856445     -4.76596016217396      3.68635135425170
  H   0.39816086771756     -5.92106508408767      2.72139123871397
  H   1.89332188611184     -2.42969665601329      2.30974907063503
