34
Coordinates from ORCA-job 25084opt
  C   2.08513158137649      1.18628091454475      1.07020640002334
  C   2.41393876392891     -0.12457397768931      0.36691382036958
  C   3.26303583341198     -1.01974953869115      1.24360585830480
  O   3.53631081019334     -2.21562800784800      0.54467767746024
  C   4.35644515838497     -3.10076349453036      1.27853377146113
  C   4.41679403828471     -4.43170231894206      0.55644468365256
  O   5.09609010726107     -4.34332671530570     -0.66951415520159
  C   5.24844945467183     -5.59449789977543     -1.27445776756656
  C   5.70805626753201     -2.51915269834632      1.64709545064148
  C   6.21317954663481     -2.72709444040563      2.86666764328967
  F   5.52977261519166     -3.48874813293383      3.76672202464593
  C   7.43822474830411     -2.06193726731883      3.32892766918729
  N   8.08019741996757     -2.41794120592615      4.41524512073308
  N   7.77483772435424     -0.96405476821461      2.61451794892070
  N   7.23435108293159     -0.67034112444437      1.45291783074300
  N   6.49118390082429     -1.73333802054067      0.80991963457262
  C   6.04428738542208     -1.27742674955545     -0.48025187002796
  H   1.47812606820343      1.83593336634388      0.43882124411078
  H   2.99779958018113      1.72489018521063      1.33077249049535
  H   1.53233313331856      1.00651589403524      1.99478623734035
  H   2.95966509679183      0.06741308515190     -0.55953737060215
  H   1.49863681245205     -0.65614955414691      0.09471919696129
  H   2.73418374190994     -1.25205868353004      2.18056098761794
  H   4.19660748720033     -0.51082674117304      1.51554455882697
  H   3.86268108801615     -3.32592065602947      2.23375646101691
  H   3.38979652732637     -4.78678332724399      0.38715458318113
  H   4.92737589993373     -5.14207243962492      1.21993162318053
  H   5.75459304070578     -5.44480502938847     -2.22663351844570
  H   4.27531248069224     -6.06997832503946     -1.45669285657538
  H   5.85114483059142     -6.26556271127148     -0.64993583584884
  H   7.61102142018615     -3.22936473504086      4.81003741210115
  H   6.93006814364428     -0.96664443381013     -1.03525079452236
  H   5.37877508898787     -0.40389219971733     -0.41009674754682
  H   5.53859312118287     -2.07769824880232     -1.01110941250050
