27
Coordinates from ORCA-job 25087optt
  C   0.78077702631214     -0.00301194194776     -0.46390252700989
  C   2.26467302747116      0.22502050617386     -0.32875216588359
  C   3.14497696183469     -0.61266061076216     -0.90849695950980
  O   2.57320984955466     -1.68883832216352     -1.60321135204441
  C   4.61231508798641     -0.53071250236522     -1.03409484254917
  C   5.37160090410871      0.65040363148735     -1.29586733616587
  C   4.73247625969093      1.91094003453174     -1.43926614991601
  C   3.50854931540518      2.12497182990269     -1.99497403038115
  N   2.60748833355096      2.95001566504336     -1.22625820475153
  C   2.49457163346938      2.53579258238736      0.09281719441218
  N   2.49394588954340      1.34162278871641      0.52408826922851
  C   6.82489956056962      0.64318048715633     -1.19162740771610
  N   7.62754341553696      1.62180557987441     -1.37385543424025
  O   7.45637696848703     -0.53455810562022     -0.86397506189958
  C   6.73699135479233     -1.68322310464348     -0.71471244566124
  C   5.39493688009044     -1.68084551835289     -0.78773520696478
  F   4.77099604535053     -2.87346945834740     -0.54238967861062
  H   0.32320709829138      0.87740895160240     -0.92825736763842
  H   0.33279992465660     -0.11267610392366      0.52712491022161
  H   0.55444581029946     -0.87989667405022     -1.06197785296976
  H   3.22439740364113     -2.39433692099162     -1.63373379480082
  H   5.14383994999944      2.72883239415962     -0.83861444206883
  H   3.04946967876691      1.41808868276680     -2.67180837688958
  H   2.64922828580459      3.95151627097076     -1.34948505239073
  H   2.41672765300248      3.34292789782323      0.82412032526643
  H   7.09109914111695      2.43218590053192     -1.66599220007075
  H   7.33545654066643     -2.55748393996012     -0.51816280899585
