24
Coordinates from ORCA-job 25094optt
  C   3.82145397207046     -1.47508341256079     -0.25842727753037
  C   3.38907995066331     -0.07121173241829      0.08443233373284
  O   2.98171073415026      0.23815467676142      1.18873429031389
  C   3.49485662815708      0.91104696157739     -0.98006097263912
  C   3.27790177580658      2.25620065933087     -1.03153982753018
  C   3.61016153346985      2.68490743497364     -2.33745555838370
  C   4.01072240630194      1.54806660162043     -2.99569211827736
  O   4.41285655217826      1.41447003841329     -4.24415642543020
  C   4.85932746482154      0.15026385338690     -4.67355305439220
  C   6.13607124963985     -0.30406393867484     -4.31791386887296
  F   6.60201169422753     -0.11047755241397     -3.04668833986573
  O   6.52098687956638     -1.51042332369340     -4.78952105611267
  C   5.65056773016391     -2.30342356387538     -5.61001116656907
  N   6.05108048565669     -3.49428619602393     -5.84290398222054
  N   4.52317713390614     -1.75213771883423     -6.08861892346059
  C   4.15768471941429     -0.55062450186886     -5.61908473754832
  O   3.94285509591302      0.48179205369745     -2.20764041259787
  H   3.75004826743576     -2.09661409066134      0.63000585325228
  H   4.84106323831198     -1.47020919881132     -0.64713488900788
  H   3.19151753193676     -1.87638633020594     -1.05429219853662
  H   2.93030858084483      2.85038186533672     -0.20273599285352
  H   3.57840267738966      3.67413608060700     -2.75686757870529
  H   6.94161895114621     -3.63615475425135     -5.37610126364710
  H   3.25953474682756     -0.10632391141148     -6.04077283311763
