33
Coordinates from ORCA-job 25099optt
  C   0.94475840233111      0.20363400014619      0.26277944880980
  C   2.46451886443038      0.14105157733014      0.10912034150974
  C   2.93528756100089     -1.30751122586741      0.22098957894719
  C   3.00057383408846      0.83082256762350     -1.17860067483334
  C   2.52380978667209      0.10587045355692     -2.43836488294765
  C   2.49663923779975      2.28051292253717     -1.24687692249470
  C   4.53687063064697      0.85356235368929     -1.11927227228762
  N   5.18328237114933      0.19329098943966     -2.08772352443874
  C   6.55126281242836      0.21824410552939     -2.04130956027452
  C   7.26337918414759     -0.47113288222793     -3.07597207443071
  C   7.85380984694482     -1.05116239920371     -3.94856824557655
  C   7.24412734850190      0.87085374041845     -1.05318811359822
  F   8.59245643197071      0.84805247491480     -1.07701916784167
  C   6.59761481619399      1.56384708468194     -0.01150460258414
  C   7.29267866426990      2.23271190507692      1.03642824067315
  O   6.73905541557261      2.83998738160873      1.97244762561328
  C   5.17427256160701      1.53195384729888     -0.09676419604772
  H   0.64690915700441     -0.28501878004070      1.19353853941937
  H   0.43905213483258     -0.31586101529071     -0.55434320082364
  H   0.57662148926717      1.22923021453088      0.29593503412318
  H   2.89697972844726      0.69228367367952      0.94894554941568
  H   2.43685521084361     -1.93721737392045     -0.51991126137817
  H   2.69847931785045     -1.70763763980848      1.20933400824078
  H   4.01167779481582     -1.38628626185143      0.06464964168458
  H   1.43200085548331      0.09586869804795     -2.48036551734357
  H   2.90039023967535     -0.91367430690275     -2.48515664755891
  H   2.90038549461035      0.61785306723333     -3.32376552090724
  H   1.42388263217099      2.31508028293691     -1.45130599923667
  H   3.01179853936902      2.81078882092404     -2.04959147089928
  H   2.68840317257181      2.81597702403029     -0.31527212905912
  H   8.37260326733632     -1.56211213802588     -4.72171164782183
  H   8.39267603448129      2.18731846352495      0.98468508927947
  H   4.62488716148424      2.06081837437960      0.67073453466781
