31
Coordinates from ORCA-job 25095optt
  C   3.12740312354430      1.42802278755661     -0.21532737259633
  C   2.56017651133949      0.04182438291404     -0.48863989977747
  C   2.85821787953143     -0.93189741545146      0.66158234072245
  N   2.26533369858873     -2.25464508407743      0.40101354929005
  C   0.97004997962379     -2.63979073941193      0.59440886188302
  C   -0.05149537123536     -1.55296309060746      0.80807872143145
  N   0.54831980740526     -3.85191199047174      0.57679283605579
  C   4.32959701212759     -1.10136199000353      0.87669707806647
  C   5.22798808562606     -1.80553338762311      0.09482090004988
  N   5.08728979164951     -2.64198800880393     -1.02872751999768
  C   6.26860951092672     -3.10993797676397     -1.62205288505194
  N   7.46428808557360     -2.95967710539498     -1.07164147632598
  C   7.58709321606213     -2.26805240922071      0.02459026677028
  F   8.84034025571457     -2.13386066516281      0.52322088102134
  C   6.50695919312306     -1.62206215836929      0.67862305384089
  C   6.28137120454200     -0.79283433886467      1.78860990176528
  N   4.98166536048043     -0.47863697493446      1.90658699989759
  H   2.91458493804563      2.11171220771453     -1.03920106709602
  H   4.20575221111407      1.37280057706064     -0.06600815764898
  H   2.69698059931579      1.84764717869792      0.69709005690090
  H   3.00139979257170     -0.37163847505034     -1.40103278110323
  H   1.48214395327725      0.10429118862368     -0.65842306074997
  H   2.45639660349816     -0.51550159195966      1.59092914125041
  H   2.94399207814206     -3.00408034996811      0.40628489120710
  H   0.30704433836393     -0.77765423327569      1.48443758131398
  H   -0.95015439646376     -2.01138033067556      1.21070061185722
  H   -0.29598187313438     -1.07938194120831     -0.14337091279482
  H   1.32074425474466     -4.49758035867665      0.41071518884141
  H   4.30547262101563     -2.47311281882550     -1.64362025715319
  H   6.15828088435797     -3.69692465066870     -2.52122894239391
  H   7.01513665052781     -0.42689023709736      2.49209147052403
