33
Coordinates from ORCA-job 25106opt
  C   1.13464042885106      0.55650351703953     -1.01453448904154
  C   2.20860142627202     -0.08833863856182     -0.13961636209841
  C   2.89527031904841     -1.35068307825003     -0.71957007086869
  C   3.35890356415790     -1.06283925091782     -2.16356039888122
  C   4.37415756717358     -2.05272861539998     -2.71907410692375
  N   4.41703806281266     -1.95285084531873     -4.18426653014748
  C   1.89059439747516     -2.51291692418588     -0.76903058164398
  C   1.71960415408093     -3.16663855004614      0.58475446917014
  O   2.93467670406027     -3.71389347494051      1.02789075113022
  C   3.99069498146950     -2.81541195997622      1.07915244693172
  C   4.93874832451827     -3.17028918961170      2.06501309844526
  C   6.18153147324128     -2.58634197894337      2.28660175724668
  O   7.01804768013243     -2.80676952785022      3.15605456567898
  S   6.69538218708557     -1.28542295835946      1.05607676383643
  C   5.23605408983730     -0.98790318892077      0.16921147724626
  F   5.18902071336866      0.29510876069161     -0.34451777758012
  C   4.06039097595991     -1.73604839152806      0.19892702093319
  H   0.69613675123029      1.41241397975440     -0.49790851380568
  H   0.31942140328467     -0.12918371872287     -1.25381691247358
  H   1.55129168355631      0.91974406236435     -1.95506491186699
  H   1.78027755789048     -0.34904048619583      0.83167604092161
  H   2.98478573684140      0.65030423575385      0.06091019522149
  H   3.77922731223828     -0.05860198970002     -2.23563717679092
  H   2.47147842277968     -1.07908691039934     -2.80955995874649
  H   4.14602458370880     -3.06603564344690     -2.36739313762500
  H   5.36265284351202     -1.81022912212563     -2.33006648585688
  H   3.53394603224428     -2.26045697996898     -4.57685224830143
  H   5.13260133546037     -2.56499288222522     -4.55764641781437
  H   2.24280415610940     -3.27908285623385     -1.46447462084625
  H   0.92533814938976     -2.15962052461125     -1.14081014945542
  H   1.01107868573337     -3.99554856764785      0.53537513786546
  H   1.35147440563994     -2.44262484693204      1.32344244469362
  H   4.66910389083592     -3.97549345458324      2.73631468144719
