26
Coordinates from ORCA-job 2510optt
  Br  2.19358013622468     -0.70201233448769      3.52361438111020
  C   3.66445994964886      0.12116463540673      1.71872819434209
  C   3.28459561753548      1.11954424114893      0.84490988223798
  C   2.48433646717462      2.24162009656344      1.32502865488373
  C   1.34499367073141      2.78531697122823      0.77946933300370
  C   0.61582475547751      2.25771343080659     -0.41856857882215
  C   1.16229929206668      2.72106046459830     -1.76992376581631
  O   2.27969262126748      2.00130389788966     -2.23066430957896
  C   3.48058560725220      2.15596844690107     -1.49279632044494
  C   3.73840547469121      1.03588244466656     -0.50396328707052
  C   4.48233744175435     -0.03155879877517     -0.92513919437860
  C   4.84298503467584     -1.10684026476692     -0.04269814995065
  O   5.49879399112866     -2.10401480710849     -0.32657409561616
  N   4.38518029035772     -0.91371706238493      1.26566536729498
  C   0.90889359729732      3.87756118425407      1.57129378692520
  N   1.62084456930101      4.17517740071019      2.63142408213368
  S   2.87820240229480      3.12323571988298      2.73196868342747
  H   -0.42805182609167      2.57709263605517     -0.35527193594807
  H   0.62286251231902      1.16443452179873     -0.40591447049930
  H   0.40092213267607      2.57266010294691     -2.53769535948003
  H   1.39812562125896      3.79347054689166     -1.72323999213052
  H   3.48557369245195      3.12296068824276     -0.97833563746959
  H   4.28684270388895      2.15075318718003     -2.22773620571022
  H   4.84375075480477     -0.09729025459628     -1.94248688895605
  H   4.60469278280220     -1.66008450839323      1.91502899040089
  H   0.01627070700985      4.45859741334066      1.36087683611215
