33
Coordinates from ORCA-job 25115opt
  C   3.67960447094055     -3.48347571945047     -2.93112272482422
  C   2.71652067489643     -4.29275033916684     -2.07538717189435
  O   3.03479316820998     -5.67161651155922     -2.12974065690126
  C   2.72506402193255     -3.83193592302543     -0.61583087621834
  N   3.98943364174549     -4.18601363260460     -0.01848722928647
  C   4.61955987816617     -3.27218688753853      0.61980952580663
  N   5.78949491419062     -3.45437976335598      1.24818263527975
  C   6.51206911636100     -2.33601021232635      1.82096415247322
  C   6.44073373493850     -4.77348208851775      1.14392778542409
  C   7.66246783059821     -4.88196057488848      1.99506866431337
  C   8.87394505290486     -4.53618152759224      1.50471345174711
  F   9.06114066958891     -4.07386205386346      0.24783854752950
  O   10.04100580514827     -4.51377256346035      2.17667479832053
  C   10.01699149855263     -4.77291969958477      3.58839277005874
  N   11.15040433935845     -4.64807329444501      4.19368199721816
  C   8.77778026893612     -5.14205499398169      4.13852320618696
  C   7.60052473781386     -5.22553273653831      3.36810928996354
  H   3.68448339425114     -3.86455896308423     -3.95215933360903
  H   4.68876162814194     -3.56426596740462     -2.52346557048276
  H   3.39528811152467     -2.42849600709814     -2.94883108827492
  H   1.70188380123391     -4.19412960602836     -2.47223538272156
  H   3.73893775015222     -5.79285111091741     -1.47440328645635
  H   1.91507557310991     -4.35583733047547     -0.09646668319491
  H   2.51404348841063     -2.75218412002231     -0.56840265785353
  H   4.21805110367728     -2.25443633082879      0.70640525828654
  H   5.84028463060576     -1.48008671512409      1.88374706438179
  H   7.37832563354454     -2.06351023764305      1.21185077311914
  H   6.86430047094642     -2.59188766050184      2.82048058390091
  H   6.66716804842933     -4.95708263333608      0.08956323618433
  H   5.70310177816717     -5.51847199622684      1.44783087733073
  H   11.86282901326581     -4.38648955265582      3.51850879953180
  H   8.78733740576416     -5.37114080869788      5.19389703397072
  H   6.66259434449197     -5.55736243805520      3.79336221069007
