28
Coordinates from ORCA-job 25119optt
  C   1.32041419103337     -0.90389849425197      0.26742049184322
  C   2.61866308021769     -0.19130499879702     -0.04588531112493
  O   3.27642170830934      0.17919647655668      1.16432301838816
  C   4.55236297386800     -0.27926539636879      1.33710909395957
  C   4.89865861181460     -1.59484367489261      1.31991024064203
  F   3.88689366402318     -2.47527394985514      1.11764728793320
  C   6.22331040853650     -2.09510218773270      1.50390292558348
  N   6.43977724121138     -3.43313243711863      1.40270161819202
  C   7.60698474828228     -3.93512451297961      1.56773599846261
  O   7.81523334720577     -5.28154027945451      1.45487686116952
  C   6.68127008089589     -6.04397480519001      1.11156272193291
  C   7.18135837911781     -1.05603914350655      1.75195933525238
  N   8.53560530028154     -1.09876802219552      1.95559674723440
  C   8.85973126303294      0.18879150715312      2.09395923730974
  N   7.85142144988949      1.08799584117414      2.00659104312514
  C   6.79907050661524      0.28975827358426      1.79440495731710
  N   5.47898097797548      0.69657927473558      1.63334983620493
  H   0.78946722269857     -1.14256149861311     -0.65647585040686
  H   0.67963817757204     -0.27079257599443      0.88197898755162
  H   1.52592198646357     -1.82654382757251      0.80735944255088
  H   2.42546494934226      0.72766705958464     -0.60892816049707
  H   3.27636464609478     -0.82651835482063     -0.64028105923457
  H   8.51596128255699     -3.39332431707734      1.80239713336040
  H   7.01477695445886     -7.07924968535979      1.05482473279936
  H   6.27075195585942     -5.72187327736396      0.15165316734492
  H   5.89383154178364     -5.93619326563268      1.86051401324578
  H   9.87968343712170      0.50464706170534      2.26935826601418
  H   5.28697991373753      1.63868921028379      1.33143322384584
