30
Coordinates from ORCA-job 25116optt
  C   1.02946013286766      0.51600018075990      0.79554316119409
  C   2.47666272946974      0.30649439122214      0.35605579748147
  O   2.77510425167542      1.19882781170690     -0.70896059790535
  C   3.44737224237433      0.68241998082831      1.46974041842460
  O   3.30662785799828      2.05697879475624      1.79730278091758
  C   2.61969143149059     -1.15875492914339     -0.17129104164095
  N   2.16320929987253     -1.14795564573345     -1.52976319241792
  C   1.78588787437932     -2.32446673246949     -2.05235502366483
  N   1.31509715244361     -2.22076054491248     -3.36055307127935
  C   0.82701666382115     -3.31083502790896     -4.08789025160629
  C   0.90641974250866     -4.54489888383599     -3.50849615126338
  F   0.49538214846825     -5.61425914686956     -4.24096542589098
  C   1.39526531094086     -4.74328607915235     -2.22896612543680
  C   1.83376794268227     -3.59647884642013     -1.49466068016718
  C   4.06532364511320     -1.67085758578900     -0.05348963696567
  O   4.74861412264223     -1.60697186518533     -1.19496296106583
  O   4.55822211626901     -2.07374430483356      0.96798370380791
  H   0.86768073798223      1.56274818343235      1.05023208678294
  H   0.79586739804554     -0.09959099775177      1.66668936921232
  H   0.36758390951175      0.23373828218517     -0.02443923522248
  H   2.48589995867366      0.69906943677043     -1.50090099325009
  H   4.47174485985003      0.47922949871714      1.14816370270042
  H   3.25125710673982      0.10221169082362      2.37167518215903
  H   3.28634793145309      2.51838685917390      0.94971017338418
  H   2.03129424870191     -1.80262955786487      0.49556817744486
  H   1.11107971779456     -1.28262774304321     -3.65950679576182
  H   0.47791978508996     -3.14288893733550     -5.09336124702838
  H   1.44174595158213     -5.73959866986510     -1.81469794921129
  H   2.25047326065294     -3.72285975215125     -0.50655310987069
  H   4.07798046890516     -1.32563986011064     -1.85885106386011
