28
Coordinates from ORCA-job 25123optt
  C   3.22768432397949     -0.11612242564648      0.92652286952203
  C   2.32323772529135     -0.05729395415606     -0.29919810379635
  N   2.96243764991005     -0.58630097359495     -1.49189528103802
  C   2.92915141774822     -1.95048415941971     -1.71357718954504
  N   2.41497945397442     -2.83548209682883     -0.92369216310524
  N   3.49813972844503     -2.37044709287732     -2.89087394595801
  C   3.53272337307317     -3.75163739619919     -3.17261380811121
  C   4.02273450034337     -4.19118348070634     -4.32246758592818
  F   4.05272207830987     -5.51485945391013     -4.58288557189776
  N   4.59784772631168     -3.42619646924132     -5.32581705793753
  C   4.07709447000928     -3.67546167951786     -6.66671039089616
  C   4.62823116682569     -2.03864541675186     -4.97366100899422
  C   4.10551325547854     -1.52018035205884     -3.84259619008649
  C   4.20932539033694     -0.09545530271675     -3.56106094944073
  O   4.76266805589561      0.68744778428250     -4.37133628617731
  C   3.65030726927863      0.37450148905364     -2.30671439234658
  O   3.70243614740662      1.53102685118560     -1.90366574294941
  H   2.71350911938889      0.28249085524810      1.80388713754727
  H   4.11657897371239      0.48631890703404      0.74065475260423
  H   3.53859471427370     -1.13999014557583      1.14018645736089
  H   2.08065569640840      0.97933053089791     -0.51751519480262
  H   1.38837083554219     -0.59536132588769     -0.13302180264659
  H   2.06846283028432     -2.41459290386625     -0.07464834201697
  H   3.18669732458776     -4.41017777884663     -2.39536710239028
  H   4.15955766887176     -4.73483787006581     -6.90300766588102
  H   4.67949433128662     -3.10781517125890     -7.37474338459405
  H   3.03062819992096     -3.35524896069291     -6.76123612479252
  H   5.13621657310499     -1.37734200788211     -5.65794593170209
