31
Coordinates from ORCA-job 25127optt
  C   0.85362684210853     -0.53143481096544      0.99176007018889
  C   2.36723108664781     -0.39917070679843      0.91232398771133
  N   2.97257134593731     -1.09213467900271      2.02552953069405
  C   4.26331322345067     -1.12600988996377      2.08821524415972
  O   4.92641250763333     -0.46773853994749      1.06882863195319
  N   6.32641346967312     -0.44736033702006      0.92418868069846
  C   6.93966929109015     -1.05227978711686      1.89382891758831
  F   8.28965311225268     -1.01650936550978      1.75549878975611
  C   6.44284184852792     -1.71350218706013      3.00586790273462
  C   4.99382769478590     -1.77989187472486      3.13340409606647
  C   3.94276511704550     -2.40736000515611      4.15129955870017
  N   4.04566632926626     -3.19561644493913      5.41913252342573
  C   4.91441793481665     -3.68140963945254      6.19908417152709
  C   4.52971358349861     -4.44993625708329      7.43026631449542
  O   6.30268693508668     -3.62061111830438      6.09871194035477
  C   6.41294818181855     -2.87196927910617      4.89253923993621
  C   7.47256678424608     -2.32266456899843      3.99210471588706
  H   0.36205785112553     -0.01310773799323      0.16442401914839
  H   0.48848096594885     -0.11582291987082      1.93279061757508
  H   0.56744057421009     -1.58453451434502      0.96465497166779
  H   2.64239023138329      0.66494336716351      0.90527977840486
  H   2.72100031830009     -0.79590747673336     -0.04910933577061
  H   3.28736048789950     -3.02316164952619      3.53229989180982
  H   3.29301988898096     -1.57561527152454      4.43113897459899
  H   3.44803080070852     -4.48764315591382      7.51344575655378
  H   4.95604369938442     -3.97347565684349      8.31462452346943
  H   4.93449220891535     -5.46201119272471      7.37681322399503
  H   5.86524674060597     -1.97212549402144      5.13436469755233
  H   5.85844704656268     -3.48500978618771      4.19680612092051
  H   8.10429023316679     -3.06755555660661      3.50311279518668
  H   8.11137366492208     -1.55437346372294      4.43376964901021
