31
Coordinates from ORCA-job 25132optt
  C   1.43356635835748     -0.57976762367363      0.69347900478212
  C   2.52585442013097      0.20290091358527     -0.04273203416714
  C   2.89466961580268      1.46939773676699      0.66957226908777
  N   3.49040012297023      1.28841571777406      1.91931013864103
  C   3.78547882295484      2.43006258384521      2.52614539098495
  C   3.52270180526441      3.70275024684162      2.02358509511435
  C   3.98927367129317      4.62915347038644      2.92765377544018
  N   4.54304113557324      4.04563483897846      4.00130210931937
  N   4.40349466418937      2.68983839627503      3.71939722161412
  C   3.83752337723468      6.07331543218884      2.53893868692162
  C   5.13326743377428      6.59716064223393      1.91257162658739
  C   3.43004928536354      6.94975617198446      3.72005436567625
  C   2.69043376023414      6.11120373075310      1.48118376865665
  O   2.80795704187049      5.22338872310252      0.36733914915471
  C   2.90778107806971      3.90472785631450      0.78161709313381
  C   2.61874734448183      2.72456007133480      0.11372893052716
  F   2.05595866421337      2.78637312286764     -1.12581416977188
  H   1.23920449308025     -1.54651379789860      0.21933553617089
  H   0.50255291614285     -0.00916110320342      0.71134713203526
  H   1.74433987410152     -0.75007837562021      1.72489185610544
  H   2.20512396163876      0.42286937351238     -1.06168135207124
  H   3.41801509263082     -0.43267666037069     -0.10676821540273
  H   4.72889757770645      2.01758765044203      4.38816483529785
  H   5.95434450752297      6.50615594929020      2.62580851276385
  H   5.03077154771748      7.64867599240236      1.62395359981103
  H   5.38281288923275      6.01399447007269      1.02527352884565
  H   4.20043955608529      6.90529689572025      4.49122630616753
  H   2.49768220480661      6.59234634068731      4.16090336461831
  H   3.30071119129863      7.99227236793192      3.41353990181180
  H   2.63714156270477      7.11158336395261      1.04610847435951
  H   1.74676402355237      5.89777550152185      1.99956409778436
