25
Coordinates from ORCA-job 25139optt
  C   1.05231922110963     -0.21226258930970      0.10494128491437
  C   2.49568058866197      0.09598253045705     -0.05678214284354
  C   3.30290396778013      1.04773404620610      0.45687734616551
  C   4.57077134847953      0.75254797804166     -0.12301247844093
  C   5.86061693778506      1.47742040383341      0.11871273592505
  N   5.72156619029945      2.90205151992878     -0.00204225690783
  N   6.05949766883814      3.54665852946031     -1.15250167747743
  C   5.77948692191247      4.83006387879979     -0.90534823358231
  C   5.25796894442151      5.03231101267024      0.38843058438227
  C   5.23256056163446      3.74043256364326      0.93732149680009
  N   4.79947074472417      3.38312305667941      2.16855944628251
  C   4.39670986907834      4.48164539520291      2.83193454822164
  F   3.94912857338063      4.19383038952217      4.08036047659721
  N   4.35168151566136      5.72424345849462      2.50318858421903
  C   4.78861894941431      6.07312349672512      1.23988733331632
  N   4.51095985440056     -0.28125197094145     -0.90952188070669
  O   3.19824712606122     -0.70984878487161     -0.87172609779574
  H   0.60650588053147      0.49192646572214      0.80377304753570
  H   0.91440607291613     -1.22498133694700      0.48667202849426
  H   0.53226298975179     -0.13809482589155     -0.85129370590301
  H   3.08809928136499      1.84153430136147      1.15345423322868
  H   6.60818898362127      1.14638460285904     -0.59891541670543
  H   6.19793017134534      1.25749846976924      1.13428914683258
  H   5.97072285797123      5.56263520133047     -1.67528126726928
  H   4.75369477885452      7.11729220725393      0.96902286471695
