29
Coordinates from ORCA-job 2513optt
  Br  1.13135898733101      0.22210382390268     -0.67359526562672
  C   3.05290320152539      0.05720530636460     -0.35638685068193
  C   3.56264561132069     -1.17991163235093     -0.03815203620370
  C   2.73535883458046     -2.43003647184947      0.09781857639047
  C   2.12948196366371     -2.53627493076921      1.50319495805343
  C   1.27747256073727     -3.80123470926663      1.65212176757641
  C   2.03657948845775     -5.04278014481092      1.24380623009440
  O   2.05844432665417     -6.04180134594931      1.92466613436981
  C   2.73916370270547     -4.95091454183851     -0.09248202566441
  C   3.57808953982755     -3.67170986464772     -0.23026381057329
  C   4.83563303003668     -3.72859350004512      0.62972314119829
  C   5.64991761150294     -2.44355557963050      0.58657315531839
  O   6.86826844635215     -2.49459242316269      0.86536367595691
  C   4.97363027352976     -1.23958930684221      0.22637629393247
  C   5.68492830373203     -0.00733056927875      0.12351509849396
  C   5.02385732435768      1.13645459873489     -0.21990080243021
  N   3.69206193711433      1.20810411715810     -0.47019214584401
  H   1.90641402113751     -2.38568451013560     -0.61535181882002
  H   1.51715635043446     -1.65410456713100      1.69456412497442
  H   2.93271665303947     -2.53342464355481      2.24394680028342
  H   0.41717251355158     -3.71916982952178      0.97639252466159
  H   0.90156808222147     -3.93871048678418      2.66568595446261
  H   1.95278790629904     -4.94727935473131     -0.85698403607733
  H   3.34546150059353     -5.84713203073568     -0.22825171330915
  H   3.89490766461355     -3.58506934065557     -1.27393825429311
  H   5.48839038169553     -4.54006758308519      0.29856263634825
  H   4.57823127252883     -3.95920242337832      1.67228858327529
  H   6.74835001975726     -0.00558349776184      0.32003450944679
  H   5.55904849069871      2.07688544175700     -0.30713540531304
