29
Coordinates from ORCA-job 25148optt
  C   3.67940053739571     -0.25499821838952      1.18750922335228
  C   2.62996856527213     -0.21877594900901      0.06702180742284
  C   2.96014995299993      0.74824118219170     -1.02837131021411
  C   2.66737244684619      2.11161208424758     -0.88407856327117
  O   2.11150199959261      2.57384720464412      0.28748663206142
  C   2.93302703622564      3.07817920366539     -1.84884481785013
  N   3.53162887851457      2.65132798051941     -3.07370441126648
  C   3.87455538436438      1.30276134366237     -3.16184576651577
  F   4.57113598789331      1.04024536504787     -4.30585321905077
  C   3.65132955902046      0.36238821596170     -2.22468316214483
  C   4.14529775035992     -1.04434278552055     -2.42331875038236
  N   2.63742439992490      4.36124908689942     -1.60087408612277
  C   3.04876614611760      5.34324169982234     -2.53727558261986
  C   1.93960114473938      5.79969298982036     -3.46662113625431
  F   0.92193600041345      6.39664767616893     -2.82939115083841
  F   2.39458028255632      6.70089568995905     -4.37254737204014
  F   1.41006147552865      4.78773854050352     -4.17681119140749
  H   3.39720447763175     -0.94991413928259      1.98558021895434
  H   3.78839028569110      0.74216155889791      1.61564414769432
  H   4.65150808673422     -0.55964518063903      0.79325985034485
  H   1.66920746547013      0.05730505317807      0.51175387709667
  H   2.51029504256063     -1.22720615534231     -0.34156246241388
  H   2.01883516319187      3.53110859148589      0.12550253408452
  H   3.03414266446874      2.99644319320959     -3.89548720029719
  H   4.75018710649825     -1.12176224879216     -3.32494501642466
  H   3.31012521923628     -1.74425377704870     -2.51520845833892
  H   4.74746486654294     -1.37224439788557     -1.57208329981793
  H   3.86948501438835      5.03248081795737     -3.20153666992795
  H   3.37141705982034      6.26457537406667     -2.03271466381198
