34
Coordinates from ORCA-job 25155optt
  C   5.09573632428635     -2.81261077710760      0.16783230837730
  C   4.83878562636241     -1.31583407856969      0.18293081033942
  N   5.23974280500495     -0.71982093866330     -1.08361537234964
  C   4.75072757476989      0.65081036472866     -1.27297610449497
  C   5.22753406428848      1.53753782332628     -0.13007650112497
  C   5.19625989027511      1.19858915592167     -2.65403712622569
  C   4.92871760059203      0.18663636527118     -3.78096761340671
  C   4.48930236061517      2.55701690611376     -2.96567477847423
  C   3.00591657159738      2.56919675103892     -2.70257143944997
  N   2.24823235018272      1.69334603668593     -3.41709481667430
  C   0.90461465085167      1.76571006865084     -3.09447193391090
  C   0.44225814176527      2.64690543224610     -2.15889450601956
  F   -0.89564384474867      2.65591390511317     -1.90079206865446
  N   1.14961746314186      3.51563426133211     -1.45386266246258
  C   2.49049636055683      3.43215401610966     -1.76904589226479
  C   6.64759293351312      1.45695054633400     -2.63139325498595
  N   7.77306778165590      1.68451148119098     -2.64081482437709
  H   4.83668317828618     -3.26249906478882      1.12707353376930
  H   6.14745230901273     -3.01278447206208     -0.04053233526571
  H   4.49705025244609     -3.30200251214322     -0.60407223562861
  H   5.42081320022297     -0.85871254132223      0.98525780353003
  H   3.77805964629873     -1.12218872839591      0.40959814900639
  H   4.86266992287891     -1.29504924433293     -1.82849000379794
  H   3.65295311173707      0.67177785706534     -1.29740179739843
  H   6.30813603900105      1.43863423689024     -0.00396385075678
  H   4.73547299671184      1.26714660318458      0.80365713800599
  H   4.98310082736343      2.57918849095292     -0.32813937148064
  H   3.86957004324542     -0.06837856970593     -3.77958076822741
  H   5.55728151775952     -0.69783095381276     -3.67320158177127
  H   5.15653399351560      0.64557751645953     -4.74298400002444
  H   4.67873637876422      2.77304739061033     -4.02131525205136
  H   4.96400729591637      3.34940894579154     -2.38603124129176
  H   0.21678892658947      1.10604234755311     -3.60850384084325
  H   3.15073170553980      4.10797537833360     -1.23384456961496
