31
Coordinates from ORCA-job 25158optt
  C   1.22928367190352     -0.50562347269807      1.83854789731415
  C   2.69779765459191     -0.67002913899697      1.47909406444361
  O   2.86241588419399     -1.79397220257528      0.61012603372543
  C   3.26022249658576      0.61833094604908      0.87418418309290
  N   4.70538148221855      0.76593725852534      0.86954933937561
  C   5.39630503879897     -0.15206929726346     -0.00971894370978
  C   5.26911180822552      0.84520927982912      2.17087413862753
  C   4.97506280657874      1.80661193284086      3.17317153323024
  C   5.76185379236156      1.40740274794055      4.30632441222157
  N   6.50353820483793      0.30947108947741      4.03532100841973
  C   6.18827289245416     -0.02450068576254      2.75163130945959
  C   5.80070995670002      2.07449650296563      5.53264135289692
  N   6.68516942045899      1.67921683763875      6.56013220733122
  S   4.82322157669726      3.48164574759581      5.87265112253704
  C   4.11337856204736      3.81635508304361      4.30698801305910
  C   4.24931385299935      3.01773225382491      3.23108187532675
  F   3.65564952749925      3.45058693214249      2.08272980722915
  H   0.82358939440522     -1.45050222813392      2.20084922666148
  H   0.65434389651879     -0.20000735584369      0.95814247975830
  H   1.10257467888884      0.25450421701620      2.61076164120856
  H   3.27892616495169     -0.90944105998186      2.37338802756276
  H   2.66738512010818     -1.50408406383384     -0.28670850601388
  H   2.84310705665190      1.46229899433283      1.42229271980874
  H   2.89683727766417      0.70192511268199     -0.16133806907125
  H   4.94152009025194     -0.10266158719150     -1.00343729244985
  H   5.36515694597598     -1.19697382888297      0.32667564792286
  H   6.44085823149464      0.15466960104763     -0.08626025870624
  H   6.64363104559490     -0.88527987121287      2.28155060868220
  H   7.21540834140834      0.89235398423708      6.19200795887363
  H   6.18849180752615      1.36043499210554      7.38937415841547
  H   3.57048131940628      4.74696127908213      4.23637230276640
