26
Coordinates from ORCA-job 25168optt
  C   3.26419660168977      0.84092034092336      0.66911551163581
  C   2.30372221164191     -0.01780523227264     -0.16668006342184
  C   2.05234801668474      0.65459367898505     -1.45631560060354
  N   1.83012025530744      1.20654266432510     -2.43788244094826
  C   2.82147870844267     -1.41742785685400     -0.35415960386716
  N   4.09481653774314     -1.54820874494849     -0.87788099232465
  C   4.52282623568919     -2.77255030266953     -1.01872831259857
  F   5.77212146743671     -2.86458829288952     -1.54327169046983
  C   3.87579257763969     -3.95972921238907     -0.71877266688191
  C   4.46451910851105     -5.29558600211714     -1.00242402292638
  O   4.61720626484619     -6.11426478210896      0.17068275556275
  C   2.52865102667446     -3.82816431755390     -0.20046416079652
  C   1.79650949985494     -4.98025566337791      0.42723695759878
  C   2.16185320058125     -5.17596641354745      1.84663659133428
  N   2.46415822093834     -5.28193663979395      2.94954666990963
  C   2.08128459595661     -2.52424716927236     -0.02805055648467
  F   0.84181496502686     -2.34910325321429      0.50854648368274
  H   2.88610363615775      1.85784904961955      0.78177072692083
  H   4.23808948305951      0.86590495560859      0.18334704925442
  H   3.37817807890044      0.38380222880618      1.65176674549322
  H   1.33512026311923     -0.07488400642052      0.33264956844512
  H   5.42612638967578     -5.17847032864920     -1.50427375162269
  H   3.81169166168909     -5.88488030789784     -1.65795850013612
  H   4.83725519001087     -5.52297348881963      0.89963870495171
  H   2.02057696040980     -5.91551091908556     -0.08634744378318
  H   0.71843884231248     -4.82005998438577      0.39127204207605
