26
Coordinates from ORCA-job 25169optt
  C   1.15401835567985     -0.34862386319068      0.48311205853251
  C   2.60718910100124     -0.16204802507118      0.09972413605555
  C   3.28120515151361     -1.34090857172050     -0.17359201781205
  N   4.66423505342092     -1.43088448110001     -0.42887997361461
  C   5.63526518281462     -0.48989799724551      0.07946450492177
  C   6.93523070233120     -1.28694548861068     -0.12764874251211
  O   6.60503225854991     -2.36218969857800     -0.99412754394971
  C   5.23540695414921     -2.46987610404491     -1.07674125508269
  O   4.70137021339348     -3.39851653531990     -1.63317137271671
  C   5.56196244229360      0.90740239831514     -0.56674627054460
  C   4.37526958961161      1.68634692871347     -0.09721894623887
  C   3.10321004149257      1.15781138154944      0.12451828039334
  C   5.66227130216846      0.85635948921218     -2.08978446931561
  F   4.62963535162767      0.27733660369233     -2.69751425334949
  F   5.77138599858600      2.10087181834547     -2.60076832616599
  F   6.77535079765401      0.20459404427639     -2.51774717050453
  H   0.70484680939464     -1.18099800901306     -0.06504819205800
  H   0.57363350559378      0.54912380056083      0.26226190477134
  H   1.03716399880911     -0.56594186302680      1.55124575755161
  H   2.76817504244517     -2.28261211463272     -0.29837199191683
  H   5.44768657184023     -0.31623367116721      1.14257883564282
  H   7.29049856209029     -1.70080515676744      0.81932993083103
  H   7.72840215330194     -0.69849025153096     -0.58306960760709
  H   6.48058824943824      1.43431028927840     -0.27620216749397
  H   4.48755548771194      2.76281668834237     -0.09666515486518
  H   2.35741112308660      1.89999838873356      0.39906204704810
