31
Coordinates from ORCA-job 25162optt
  C   1.03092772685843     -0.44509745623833      0.08746289936265
  C   2.53882655351360     -0.18693105213783     -0.00860533055987
  C   2.90897224880821      0.51489837362636     -1.28064624929196
  C   2.65078552047282      1.93337360358214     -1.42941015532545
  C   2.99432306258647      2.52831769903816     -2.68467921188180
  C   3.55836788366651      1.80889260239421     -3.70935565243384
  C   3.95346983305127      2.52550886222210     -4.98328324408285
  C   5.47785667384092      2.60543919026938     -5.15559578621805
  N   5.82105539953625      3.31926003151594     -6.38747648499489
  C   3.35097765348638      1.89758129418133     -6.16940517885375
  N   2.89453655967724      1.41406220839911     -7.10561193719265
  C   3.80229866327615      0.42174820327712     -3.57995884708049
  N   4.36095445036052     -0.35458883459867     -4.64443846929708
  C   3.44704720875596     -0.14849014972572     -2.34678979085948
  F   3.69034820712548     -1.49070681242564     -2.22937950020246
  C   2.09723888838432      2.68186706755434     -0.40219179445462
  C   1.45904462947986      3.30763845160684      0.45443130814130
  H   0.77207275978322     -0.92791239349327      1.03353159086992
  H   0.70581668572325     -1.09062990526493     -0.73088055591093
  H   0.48807153009768      0.49880481827335      0.02314474427411
  H   3.08167921315575     -1.13001071627155      0.06908904901003
  H   2.83651708443184      0.44460176828965      0.83445934521283
  H   2.80446716080033      3.58709193234635     -2.81907063362239
  H   3.56561930452596      3.54604779518996     -4.95148929307417
  H   5.87785527936069      1.59062980900867     -5.09857886541045
  H   5.85119528667627      3.17515683000480     -4.30387492695999
  H   5.50734461435510      2.78320860613468     -7.19093654632114
  H   6.82655136746031      3.40539906228943     -6.47047954257648
  H   3.67652629797924     -0.56971167273027     -5.36604647869378
  H   4.70257355009934     -1.23488885405626     -4.28174328320117
  H   1.53167870267042      3.92043963773848      1.33180882162914
