27
Coordinates from ORCA-job 2517optt
  Br  1.03413558900301      0.01254874014359      0.49848256488460
  C   2.98942866052175      0.05951572158039      0.33166195825540
  C   3.63979217142286      1.27802187621393      0.20055762961762
  C   2.81775974477139      2.55114584327925      0.29173633084636
  C   2.59740963040166      2.98571584998798      1.74361286614445
  C   3.90708157666680      3.47481494059535      2.35791986391148
  C   4.52968649774712      4.52960413469846      1.48323574935064
  O   5.10473297368478      5.49504843802580      1.92598788531599
  C   4.43949060125692      4.32825531100769     -0.02688591933377
  C   5.70143245020272      3.66348267578561     -0.55187069478219
  C   6.05064126054088      2.25496528785327     -0.09342733146866
  O   7.27942040856805      2.01252725493954     -0.03070314512752
  C   5.08331140836789      1.20902527090025      0.11231016999924
  C   5.63715208249211     -0.10530973122729      0.24205129423263
  C   4.84378405796898     -1.20253598375280      0.36750847895537
  N   3.48938961941165     -1.15488584434298      0.40078313946070
  O   3.27477963403149      3.65949273840313     -0.46780953809411
  H   1.84572572294980      2.34669457175350     -0.14721495433866
  H   2.18768787411512      2.15263537425129      2.31423623382348
  H   1.85849330864820      3.79280002153921      1.74689547262807
  H   4.61638971592913      2.64144302858646      2.40430912331266
  H   3.78713485159354      3.88160440985611      3.36217009655731
  H   4.37827326451439      5.33157128646313     -0.45358720101001
  H   6.56037552797695      4.28776269906496     -0.30129599434567
  H   5.61526782063339      3.64802086494332     -1.64443926461037
  H   6.71289325645351     -0.19670792033302      0.21448935025560
  H   5.27733029012586     -2.19425686021619      0.44528583555936
