33
Coordinates from ORCA-job 25179optt
  C   1.24230259808356      0.13133050427876      0.89427192261238
  C   2.69022453375920      0.00855637984511      0.40805253490102
  C   3.60390136277827      0.47092724851517      1.55978756347560
  O   3.47240452604545      1.85607375249930      1.82236492165078
  C   3.00372753144742     -1.45467021137080      0.03443156791520
  C   2.67752456841240     -2.51090185552040      1.09060863967722
  N   3.19111632400560     -3.80531703036411      0.67009164122555
  C   2.36755773653031     -4.62436459986235      0.18902391234938
  N   2.73074244127371     -5.89426911681579     -0.23196462403788
  C   2.94022803820030      0.87777908268182     -0.82486929748455
  C   1.88457939344473      1.50710580612207     -1.50021329671511
  N   2.16581316884645      2.30814459489633     -2.61805233037665
  C   3.41146606439094      2.40118375975467     -3.25614735828928
  O   3.47240396118602      3.05121702160134     -4.31252944818582
  C   4.46307464674917      1.73764864721076     -2.58535190444755
  C   4.19158246005056      1.02740086793980     -1.39918450317661
  F   5.26436613432388      0.36165567687380     -0.85524395104064
  H   1.10175863128489     -0.45508128042669      1.80408504666435
  H   0.54104683660112     -0.22791893262497      0.13839494895106
  H   1.00740096827809      1.16931587112790      1.12908819373476
  H   4.64270898782146      0.21924142312061      1.33283773676742
  H   3.32029944516355     -0.03615295313106      2.48563462346140
  H   3.56051245574062      2.29669908741937      0.96484312658160
  H   4.06103816521556     -1.53846468403611     -0.22173133038030
  H   2.43954855657271     -1.69505441594626     -0.87251273845086
  H   1.59370127449994     -2.55662719509236      1.25913281283622
  H   3.14759127292243     -2.25646185932467      2.04325438252631
  H   1.29319136218048     -4.41953547308145      0.10331926429568
  H   3.72604398828929     -5.99271493200157     -0.37430852345353
  H   2.17822969479230     -6.27332434757692     -0.98416063266829
  H   0.89693487073718      1.61947547845214     -1.08498250732814
  H   1.40909627785530      2.68399678108470     -3.16394546862995
  H   5.46488172251698      1.79510690375189     -2.98002492496079
