31
Coordinates from ORCA-job 25170optt
  C   -0.06163137268245     -0.42789304365185      1.92946011578046
  C   1.11366537391393     -0.32052320714757      0.95452756449878
  C   1.80144923657850     -1.67406287182833      0.75993775560024
  O   2.30403810028619     -2.04815365951636      2.01866214226655
  C   2.77804516766182     -3.35341698753405      2.05624887892191
  C   4.17627356893478     -3.60895364276567      2.03217886150111
  C   4.65733314294043     -4.93060368369757      2.09512536071556
  N   3.68742815614172     -5.94673788701424      2.08801870409252
  C   2.31477266469538     -5.70602458180641      2.24513315549006
  C   1.88627721741792     -4.40559513609292      2.17856206750446
  F   0.54967516219669     -4.14365796886821      2.21958324366413
  N   5.89706713234966     -5.35815909023716      2.14967936991455
  C   6.91819618614393     -4.35036860823308      2.11753539502337
  C   8.26613524343168     -5.05731758832585      2.15353855537795
  O   8.31104599587154     -6.06794674781042      1.16585050048179
  C   0.66553384551258      0.20677861953062     -0.33665207707043
  N   0.28731456249901      0.61261070556793     -1.34105183616237
  H   0.30700954635538     -0.81713279390255      2.87578177243676
  H   -0.80645305000026     -1.12212478210542      1.53940799836194
  H   -0.53173526746664      0.54240928488963      2.08694355966227
  H   1.85744911716521      0.37572552500030      1.35076909087522
  H   2.61188409358333     -1.59795082991981      0.02696670901896
  H   1.07173502773842     -2.40756321315742      0.40016086398965
  H   4.86395846727231     -2.77809504408451      2.01229487813098
  H   4.05856878960118     -6.84643395620706      2.34354459690615
  H   1.64501972685506     -6.54942051095005      2.27644003268704
  H   6.85616119046847     -3.64713781908738      2.96610257457777
  H   6.86421910755149     -3.74010444128300      1.19859109695415
  H   8.41276915349593     -5.49778656759036      3.14878856763833
  H   9.08472319255745     -4.35917236668025      1.95981566263555
  H   7.39507152092925     -6.39718710549082      1.15805483852454
