30
Coordinates from ORCA-job 25188optt
  C   2.89701943910908      1.02444297731111     -2.04403011827755
  C   2.21517365760796      1.89767931830234     -0.99773095794574
  N   2.70194056060747      1.63593867296875      0.35536631688870
  C   1.97473635618891      0.85562928656737      1.20542743461216
  N   2.29296197428643      0.42064141376490      2.36447355756181
  C   4.06801782682101      1.91827729077474      0.64135976178896
  C   4.63886720171331      3.15045451639316      0.27637534171127
  N   3.84046791330579      4.31543227004702      0.30731957903814
  C   5.98898505460798      3.31441242593315     -0.10719781455814
  O   6.46370880854336      4.46529466735602     -0.31331422458337
  C   6.81888953806242      2.07531531945243     -0.25236818897649
  C   8.20798884622108      2.05999626676534     -0.70755235784289
  C   8.93521700178714      3.37873903660579     -0.87305324161140
  O   8.81618724501413      1.02518235268422     -0.96547956087015
  C   6.19377523051829      0.89972382192272      0.08813539112036
  F   6.81117525312338     -0.27961446347349      0.11576019415300
  N   4.92566225252846      0.79038385514351      0.46828320673477
  H   2.51729440857536      1.25607958574766     -3.04128692765182
  H   2.72486117494862     -0.03507061240834     -1.84226659127623
  H   3.97285075000328      1.20482541444415     -2.03955427464600
  H   1.13384988130709      1.73669909090007     -1.00402360409609
  H   2.39726456612760      2.95179292034719     -1.21435730122392
  H   0.99762117483001      0.58329352899291      0.80272857525760
  H   3.21252501353978      0.78988637225445      2.61984976716459
  H   3.31132304523296      4.38295382543859      1.16973112380929
  H   4.47021543238711      5.10771126673720      0.20902812759229
  H   8.45628243068610      3.98089429962346     -1.64424893479951
  H   9.96639843099277      3.14937226524344     -1.13714996250909
  H   8.87950080353817      3.97691079867469      0.03485363931306
  H   4.63123872778483     -0.10127778451461      0.84092204412239
