30
Coordinates from ORCA-job 2518optt
  Br  1.32375898247531      0.29066678273253      1.05655938461136
  C   3.19308582066916      0.10519114694794      0.50318360530233
  C   3.68799469187817     -1.15404072573996      0.31949922083407
  C   2.93236806316020     -2.44457610060012      0.39155148725112
  C   3.26638725545020     -3.40265738989200     -0.76838307759604
  C   4.53168187593460     -4.25256356166738     -0.64934948305208
  C   5.83174291522478     -3.51763600466074     -0.42273911760523
  O   6.84900455901157     -3.87079018109449     -0.97474308342878
  C   5.85171092019402     -2.36314290552903      0.57241796259537
  C   5.51463761396136     -2.83964321682694      2.02604148911103
  N   4.19996421898746     -2.60529844510724      2.58800851309522
  C   3.06958144574824     -3.08190845301917      1.80769284543962
  N   5.08749298873433     -1.23868402430297      0.07273550111210
  C   5.78484938886455     -0.07554228297381     -0.38205690713912
  N   6.98539171837345     -0.11479319861355     -0.88281180339415
  C   5.07501713843960      1.13927691451886     -0.19387206215305
  N   3.83287747262415      1.24303262867727      0.33424488350060
  H   1.88179815158195     -2.18973428907288      0.26398927455014
  H   3.31291163309377     -2.81414845045975     -1.68745118633580
  H   2.42967143631381     -4.09826978936324     -0.88093647775902
  H   4.66067616293569     -4.87546236802109     -1.53467703605839
  H   4.43261522965119     -4.93660148806977      0.20191363053463
  H   6.89361057527010     -2.04746102411157      0.59536393980618
  H   6.22569551235530     -2.34890260397813      2.69130748808240
  H   5.73042562582618     -3.91332980810117      2.08218087009845
  H   4.07927221729335     -1.60745177224429      2.72643419558052
  H   2.17311039734371     -2.83762159057315      2.37968574992221
  H   3.12069707508886     -4.17410139801518      1.74784433142880
  H   7.29950449433632     -1.06886315434924     -1.03384440512066
  H   5.58346441917854      2.05005675351033     -0.47978973321385
