26
Coordinates from ORCA-job 25181optt
  C   1.02104423882831     -0.27159530982775     -0.11734428698244
  C   2.52967701923399     -0.47665224468654     -0.10150113612643
  C   3.23926999018041      0.57915893954216     -0.84413475069005
  C   2.65856136934006      1.21446555658573     -1.92438477625139
  N   3.14943440454217      2.25498905664295     -2.61822173578468
  C   4.34450416812477      2.73148392844851     -2.15907855959489
  C   4.98006708609524      2.16865244399208     -1.11226862048041
  F   6.14276151957878      2.63380835216884     -0.66206214176024
  N   4.48853545054780      1.10115667168534     -0.41050556764237
  C   5.33138514621717      0.30003561418900      0.36876695785734
  O   6.22956408073855     -0.40609500798601     -0.41476380340188
  C   5.05872612603137     -0.03042935111792      1.63680670971136
  O   4.27571083309258      0.78901024874871      2.40901671239766
  N   5.53907360518327     -1.20217941024591      2.17287307802793
  C   5.07643308119318     -2.26348044872698      1.48502044027313
  N   4.05532413448790     -2.39654499802838      0.69448421842566
  C   2.94228496071329     -1.59551612020540      0.56222548795853
  H   0.57891673389376     -0.50553756282966     -1.09105317671611
  H   0.75824131673484      0.76281461579274      0.11431479987066
  H   0.54252008887689     -0.92293983557596      0.61315967572638
  H   1.70890611620735      0.83389063575418     -2.27835821273867
  H   4.79275923992085      3.58394563283843     -2.65217481682347
  H   6.71015431361257     -0.98206549815071      0.19322935047198
  H   3.97651610354818      0.22757084364913      3.13307090033227
  H   5.66649250305530     -3.17519057287976      1.61307697214037
  H   2.09513637002129     -2.10375617977683      1.03180628179975
