27
Coordinates from ORCA-job 25192optt
  C   3.17064526581139      0.58080677040418      0.96367865096546
  C   2.20822041279861     -0.01402199272933     -0.06669824212880
  C   2.89594413537910     -1.01253966528187     -0.94665045312536
  C   3.28958500636891     -0.73232368585700     -2.18842559840432
  F   3.06054916099066      0.46283943299222     -2.73554298443038
  N   3.92120316004487     -1.63110248102825     -3.04340292134194
  C   4.94902936997913     -1.20441362431102     -3.87912255609743
  O   5.27948636260845     -0.05540817784527     -4.03790083614593
  C   3.81118940010116     -3.02600498060212     -2.71398734541020
  C   3.53143866116606     -3.34672047895941     -1.38335420815450
  C   3.12929825410003     -2.38362806263748     -0.42116763788298
  O   2.88695901941737     -2.63113463503810      0.77352877275136
  C   3.93708231306125     -3.96764062077989     -3.77053583595777
  O   4.10265884536712     -3.68715702279831     -4.97505458465147
  C   3.83020608462474     -5.45619497767875     -3.39489178307772
  C   4.99345256836566     -5.96295616223922     -2.67297008599996
  C   5.95391788310391     -6.36107205586855     -2.07492064522409
  H   2.65085150448461      1.26734049226319      1.63569650816016
  H   3.97312780820404      1.12743482579787      0.46524418349117
  H   3.60950308069896     -0.22249758908029      1.55495357972814
  H   1.76733502018663      0.77851978753804     -0.67257996901161
  H   1.40618481887336     -0.53286596646285      0.46203301274463
  H   5.43131515289781     -2.04803096712593     -4.37757831878111
  H   3.55944026969197     -4.37686077954826     -1.05869462348328
  H   3.72658514762679     -5.99107546660886     -4.33871926635155
  H   2.93426351632545     -5.63849401204536     -2.79626890719440
  H   6.80552777772181     -6.69379790446933     -1.53366790498604
