27
Coordinates from ORCA-job 25196optt
  C   0.95101064198847     -0.11858184740238     -0.11865749809058
  C   2.46890421064801     -0.14727948054112      0.07121068143701
  N   2.87489205977610      0.01707338483609      1.46097864634917
  C   3.04444333568247     -1.47868839983239     -0.44423603503096
  N   2.54818642270053     -2.52453326310942      0.41197115829086
  C   2.80788828031791     -3.74076662222990      0.09679720512544
  O   3.56330165945033     -3.93241577952356     -1.06365234662874
  C   3.75856037217434     -5.17962346177222     -1.58555751768319
  Cl  3.55174791944389     -5.15119393974029     -3.39577115562115
  C   3.23563303962285     -6.27677601613702     -0.88426567191167
  C   2.65334865361687     -6.01459469715630      0.34225170965136
  N   2.21088441124825     -7.06096171365197      1.15845175142411
  N   2.43303688238833     -4.79371638020778      0.83915095796960
  C   3.08297127551317      1.00884253140981     -0.70611008835885
  F   2.74178945342691      0.98177781862737     -2.00726073025390
  F   2.65753966372306      2.20057264272362     -0.23230722343377
  F   4.41682901999976      1.03731549147042     -0.66472320192954
  H   0.54219690496493     -0.97469120236448      0.41601188053649
  H   0.67697184680951     -0.19952651414179     -1.17134354891472
  H   0.52724348982191      0.80356153034527      0.28474556769655
  H   2.77857046606319     -0.90032494048687      1.89174540676114
  H   2.25366055805470      0.65821638590381      1.93992068764308
  H   4.13901445756925     -1.41850890259847     -0.42077877381138
  H   2.75296614846936     -1.61108118639433     -1.49244280995365
  H   3.32012501856872     -7.27438812201494     -1.28775079739951
  H   2.75668652269629     -7.90453820729561      1.07930753919622
  H   2.09659728526066     -6.75216910871536      2.11331420694059
