24
Coordinates from ORCA-job 25195optt
  C   0.73871520138130     -0.00147108862753      0.07350151865227
  C   2.20102201130374      0.45937978301272      0.20587516701496
  N   2.33013651856866      1.90660980294027      0.07072453440931
  C   2.34787116141276      2.43678839890381     -1.24624322631128
  N   1.52792981989818      1.89597362524783     -2.16120330473045
  C   1.50317427949842      2.37313205546109     -3.42280906034242
  N   0.71026534903455      1.97762709988914     -4.35848604949475
  N   2.44549482042603      3.41354509680004     -3.77874971699210
  C   2.59645769863094      3.80349422150737     -5.08124455147238
  O   3.38775843652129      4.66614384236465     -5.43208661162529
  C   3.21809611826165      4.03668706071070     -2.79363192458993
  C   3.16742017567098      3.51352357966920     -1.53340194601913
  F   3.92646904077537      4.04918090424229     -0.53831196653669
  C   2.67480722418581      0.10682978422675      1.56319967796052
  N   3.02022570501312     -0.15647652122676      2.62287848347866
  C   3.05171220061162     -0.31516069190274     -0.74516576304828
  N   3.71761616923568     -0.94739359714747     -1.43023126646787
  H   0.15665705144129      0.52634783503134      0.82694324448723
  H   0.66985447190239     -1.07718393320521      0.23275827648699
  H   0.39505063690322      0.27224421459254     -0.91956789304551
  H   3.12404380225331      2.25841762904965      0.59171018814217
  H   0.13567004459755      1.23742246514408     -3.96813002168131
  H   1.93613075900511      3.25822505701555     -5.75669671071172
  H   3.83742130346697      4.85811337630065     -3.10963107756296
