30
Coordinates from ORCA-job 25193optt
  C   0.60847578525962      0.27232127938901     -0.54958478205347
  C   2.08093206418117     -0.04798923867536     -0.32524823613457
  C   2.43815908155439     -1.42400506757608     -0.91968168933552
  C   2.22507624688372     -2.52320438681421      0.07111104033000
  C   1.25558439500257     -3.47245720531735     -0.08056269963737
  C   1.04854090497254     -4.52278193643965      0.87992630346704
  O   0.20755098523475     -5.41152318987043      0.84270526291282
  N   1.94100911414197     -4.46875673608972      1.95678119401716
  C   2.89786595146558     -3.51711538387320      2.09723351426158
  F   3.61921776979438     -3.67623034714165      3.20814250247291
  C   3.09266087130302     -2.52838234880826      1.21386165193064
  C   3.03393686305875      1.02021723099620     -0.88423347835172
  C   2.70402897052618      2.34004022056333     -0.31524758291350
  N   2.55464815381969      3.39458066943325      0.12535206566351
  C   4.50303006384327      0.66604773949463     -0.55875188000111
  C   5.52347685600641      1.61998351330194     -1.12718828580132
  O   4.73244331980916      0.07549771465214      0.55379210006609
  H   -0.02172595072026     -0.53380532541558     -0.16518977472872
  H   0.39749166492729      0.38272279758271     -1.61756980199851
  H   0.32322606195137      1.19969804044820     -0.05096464259114
  H   2.28753271823049     -0.08043508871918      0.74595913786832
  H   3.49864256875091     -1.39955619474110     -1.19354800340071
  H   1.84746540510110     -1.60793115009727     -1.82095788270039
  H   0.59783782041736     -3.47219231723038     -0.93889070982899
  H   1.84347607946494     -5.18400181536244      2.66262766967682
  H   3.85406755152729     -1.75972610147154      1.32649681241870
  H   2.90562243517170      1.11740393311355     -1.96895740090945
  H   5.29705338037538      1.89733400153523     -2.16094076596496
  H   6.51143363319812      1.15796503536935     -1.09133216728788
  H   5.57523923474706      2.55228165776389     -0.53713947144627
