28
Coordinates from ORCA-job 25200optt
  C   4.02800871385701     -1.34806354034939     -0.20372653558281
  C   3.12428150983914     -0.20764028625284      0.21057115677524
  O   2.42062312438855     -0.30534045467455      1.20278405914850
  N   3.15038921465148      0.94409370021127     -0.55082418764138
  C   2.59118064118524      2.17632792263149     -0.09030574846545
  C   1.49027550016484      2.52256291567667      0.68881822866247
  C   0.38854237077690      1.70157983249589      1.28181905940422
  C   1.58440309374247      3.93601923554423      0.78049168533733
  C   0.62717394536326      4.82235574942272      1.51698663253664
  N   2.63021387772419      4.45239185914706      0.12421380879370
  C   3.25671415979194      3.38009055442534     -0.43804561969467
  C   4.30826074397674      3.37438001405514     -1.36942918190877
  C   5.06719426719210      4.60255426737347     -1.74633161430768
  N   4.57224364870557      2.21771165104038     -2.01852886266934
  C   4.00860856583168      1.13028561391600     -1.64528585194511
  F   4.09496442165963      0.05600583888267     -2.46551043172789
  H   4.07999842227594     -2.02447826641543      0.64532039999851
  H   5.02511926382832     -0.99520122812064     -0.47021715517935
  H   3.62749844171562     -1.87730612054326     -1.06737641599768
  H   0.66674031808942      1.26149239541823      2.24158768962944
  H   0.11073083510892      0.87088766603627      0.63224286557521
  H   -0.49585730863522      2.32647343206936      1.43269654398504
  H   -0.39062106968651      4.74471844928231      1.12062195164115
  H   0.95601172638511      5.85642347826458      1.41768252539941
  H   0.57433138976949      4.57461886828966      2.58179261433912
  H   4.47377942701176      5.48416868104181     -1.50329921086698
  H   5.30472704714687      4.59176050097428     -2.81186892479750
  H   6.01246370813931      4.67812727015704     -1.19687948044135
