29
Coordinates from ORCA-job 25218optt
  C   1.24512415179427     -0.02194242524484     -0.15452041259783
  C   2.74700902880506     -0.10157864691832      0.08066743015850
  C   3.08598674414641      0.34046287791545      1.50835557431878
  O   2.81702896298998      1.71714409222422      1.70260061744638
  C   3.21418149494322     -1.53982095641103     -0.16721499286971
  N   4.65453473954541     -1.72696400344631     -0.03966446481060
  C   5.36786031500902     -1.41577152180134     -1.23152260659806
  C   6.09517261538605     -2.34779810371818     -1.92082571913999
  Cl  5.16326753385468     -4.43669943822156     -1.97081379432664
  N   6.68537543750827     -1.96839759980566     -3.06369593175102
  C   6.57696673351674     -0.68590286258509     -3.64680701160567
  N   7.07968394003319     -0.39991648718957     -4.79803266436464
  N   5.92238781534585      0.25237096683618     -2.89083627459518
  C   5.37018346262373     -0.11226890809258     -1.75591498018037
  C   4.70615124750770      0.97618854247191     -0.94494528837162
  O   3.29175191995338      0.84254681008566     -0.84537313621425
  H   0.72334150216522     -0.74645539281622      0.47293527346077
  H   1.02712169042857     -0.23665841522842     -1.20059898122551
  H   0.87970400990112      0.97624210706585      0.08537031089286
  H   4.12987641691677      0.11083983797619      1.73381909494015
  H   2.46165978170021     -0.22107765993473      2.20742923548837
  H   2.99534717058479      2.14401851633915      0.85449479640887
  H   2.85554475012476     -1.85665786171618     -1.15532697302021
  H   2.72303866050470     -2.16767262152337      0.58155389552264
  H   4.84465718107644     -2.70014612136298      0.17133570073969
  H   7.21899431281279     -2.65997302110287     -3.56997528669101
  H   7.51353688523253     -1.22305122920305     -5.20865880602683
  H   4.87809487744304      1.92444439858982     -1.45005344045031
  H   5.16041661814592      1.00349512681790      0.05221883546246
