28
Coordinates from ORCA-job 2521optt
  Br  0.84706445339216     -0.67651272631612     -0.95820671236528
  C   2.93935914880608     -0.16499611584031      0.16870168250995
  C   3.58340847324256      1.00765832875642     -0.17686752346338
  C   2.88709612144427      2.31086581023900     -0.42061086717456
  C   3.41844374572750      2.88381871059891     -1.73581815017063
  C   4.92387803347405      3.16025873282197     -1.65693078934662
  C   5.71978132896614      2.18142878561360     -0.77017385411632
  O   6.27739155283255      2.86592064260466      0.37116506098988
  C   5.51884376830752      3.59575183794322      1.22840740488408
  N   5.99996045001598      4.64201799975916      1.75526075287162
  C   4.13891050228619      3.11955187650424      1.65072896199544
  N   3.04868930108675      3.25200662332291      0.70471162998144
  C   4.96560273400323      0.92306867400469     -0.36772445177766
  N   5.70844989683523     -0.15767924368465     -0.23925266146072
  C   5.09886704282535     -1.32230394431908      0.13348932755215
  O   5.66394837335654     -2.38589634416056      0.31638642258089
  N   3.69817332844260     -1.25440700308410      0.31543114002771
  H   1.82265796760246      2.09654948482542     -0.52946144956472
  H   2.88819550417565      3.80571523335249     -1.99310579496831
  H   3.19844940926469      2.15741190014785     -2.52120065935398
  H   5.09825399677106      4.16300044598312     -1.25827863394523
  H   5.35172512622368      3.15648345017661     -2.66012944121045
  H   6.61376700736328      1.83893423374534     -1.28537631360715
  H   6.93003121681087      4.81389205234788      1.37074066836685
  H   3.89813224213284      3.71692221067088      2.52895102227040
  H   4.20643996923079      2.07711008345111      1.96207190643968
  H   2.94548698308077      4.21210681952078      0.40192939283938
  H   3.25799232229881     -2.13867855898564      0.53416192921557
