32
Coordinates from ORCA-job 25214opt
  C   0.82263610144060      0.13000072734077      0.05674380855459
  C   2.31779177834029     -0.12358265010145      0.15832469231064
  C   3.00622130169908     -0.19798976195336     -1.20706830613997
  C   2.75537476086153      0.96215633609947     -2.18706040578037
  C   3.46180236417329      2.25851828744390     -1.77574102514868
  C   3.18682531174201      0.55197489623147     -3.52731720521270
  C   3.55452586022241      0.20634208799077     -4.61597199678924
  O   2.80290197366286      0.87981665666769      1.03998249855114
  C   4.17060400113439      1.05509148736497      1.22540339045361
  C   4.59180643666614      2.40134414018964      1.35923991859347
  O   3.63262852899389      3.40600270871259      1.45968509269234
  C   5.94542936542674      2.77974471525007      1.38953285065542
  N   6.45585949621016      3.98523663107200      1.42769641998019
  N   6.85902361084976      1.71198961101981      1.38408175234896
  C   6.48324227563805      0.36779904462780      1.17910856503980
  C   5.14357599210554      0.06826052767180      1.16927732808496
  F   4.77944142928660     -1.24751311574766      1.05917610940859
  H   0.35318645986147     -0.58501417958782     -0.62183218113440
  H   0.63178748297034      1.14022846390089     -0.30968241466010
  H   0.36245596885989      0.03678268689442      1.04040352243060
  H   2.47846874706260     -1.09956012779854      0.62820433728399
  H   2.65013446228422     -1.12333323605180     -1.66863731695424
  H   4.08307526945585     -0.31024635988808     -1.07087504070413
  H   1.67879446191916      1.14942511038293     -2.25261314518676
  H   4.52751279496072      2.07860370255075     -1.62750381756164
  H   3.06653103488902      2.63912350550502     -0.83561982645320
  H   3.33732667314252      3.02011182855473     -2.54631978830035
  H   3.89110738579129     -0.09871424979262     -5.57653127680945
  H   2.78168457121286      2.95473190724376      1.48541060364145
  H   5.69202883029558      4.65430324566954      1.43460412252208
  H   7.77509623376281      2.00363021261264      1.08237703073191
  H   7.22611903507807     -0.39326484007616      1.37052170355155
