24
Coordinates from ORCA-job 2523optt
  Br  1.07424053714140     -0.21260035587289     -1.19552053982665
  C   2.89421158114555     -0.15198690802044     -0.68560130063923
  C   3.53803537186406      1.06047253022957     -0.45597965321642
  C   2.96145700417817      2.44327646717995     -0.29157802384357
  C   2.37665623131007      2.62280813345558      1.11118155428473
  C   3.44937410792186      2.32523021511782      2.17632595888345
  C   4.85692180997583      2.74121220267204      1.76905004446772
  O   5.66729007859576      3.15596472753462      2.55792794476880
  C   5.14709499577836      2.56319911215536      0.27697693476124
  O   4.11188283629380      3.29161963481974     -0.38733133946878
  C   4.87354027414945      1.13824669768300     -0.12569499428449
  C   5.64686006062292     -0.02108222210911     -0.02442632134212
  N   4.98142729013703     -1.22743885300966     -0.32152555568097
  C   3.62854627800437     -1.38408448220892     -0.63517263842270
  O   3.19421718720576     -2.51494652439010     -0.83643742446012
  C   7.00575007147131     -0.06950174732642      0.29403990159402
  N   8.13710140580512     -0.13490306437389      0.55212010278901
  H   2.25029210864395      2.73164161921311     -1.06532186706372
  H   1.51707947734863      1.96189827326986      1.24043223550620
  H   2.03263330266915      3.65497102513991      1.20639296305995
  H   3.50250859152867      1.24440264188525      2.34260409347732
  H   3.22201941288510      2.79272105931380      3.13361256035517
  H   6.12365486478415      2.97157298143162      0.02115338432115
  H   5.48920512053946     -2.09569316378982     -0.26522802001999
