27
Coordinates from ORCA-job 25233optt
  Cl  10.08577416777845     -0.64521066475347      0.26865476106389
  C   9.62280405548274     -1.62323122888090     -1.09760291122139
  N   8.45850301026059     -2.20766183059170     -1.04232064104400
  C   8.09890609682603     -2.96412850554954     -2.09760305065437
  C   6.79643455559750     -3.68395879479560     -1.99944093858591
  C   6.86749465990849     -4.88786314504005     -1.04005477870995
  C   7.95306698543711     -5.88534678030828     -1.54566162701197
  O   7.65606686525867     -7.24367760277993     -1.31055943397397
  C   7.47407319880197     -7.59409346714312      0.03384857942765
  O   6.61122676457116     -6.73656177995187      0.71139895078850
  C   5.46539492188727     -6.42073307776043     -0.03952826004036
  C   4.29405523823071     -7.15551403855944      0.25158639305717
  O   4.19644419388984     -8.10169562618621      1.07318820954155
  N   5.56000722637123     -5.46870316472108     -0.95082986948052
  N   8.85005503758512     -3.12475698926610     -3.18914133723198
  C   10.03095851796518     -2.51517927983653     -3.20965099547883
  C   10.49681857478629     -1.73272493041264     -2.17017870618817
  H   6.49424200139596     -4.03481349844042     -2.98520306205593
  H   6.03832673074125     -3.00721585610970     -1.60536289552905
  H   7.20159372933775     -4.50250168123330     -0.06582049360329
  H   8.92609682848109     -5.62667962957160     -1.09769026084511
  H   8.04945057115822     -5.80695408217000     -2.63057383330338
  H   8.42526335402663     -7.55237416194390      0.58140254647866
  H   7.07844704364831     -8.61292788158018      0.01258958534637
  H   3.42117764245963     -6.82212117388718     -0.33526892611736
  H   10.63352321658260     -2.65863526991148     -4.10101711047212
  H   11.45579481152987     -1.23873585861512     -2.18715989415610
