19
Coordinates from ORCA-job 25241optt
  Cl  1.61311081949083      1.74286622435399     -1.15514877739672
  C   2.89943103314020      0.76911215249548     -0.48430273776776
  N   3.71981112909721      1.43441205050085      0.23975318992420
  O   4.75532576347051      0.66347958950210      0.77164841466574
  C   4.98425125566772     -0.65155047648294      0.44726336780549
  N   6.10802383465677     -1.16342011933392      0.70551340303118
  C   3.88768592329943     -1.40071635256102     -0.24115184250540
  C   2.88832254673015     -0.61451840673301     -0.76566463370456
  N   3.97736498522607     -2.70300611960334     -0.46429343752506
  C   4.46785548061337     -3.54147693205225      0.43433368262816
  O   5.04804146649351     -4.64175092697036     -0.15720949332058
  C   5.50913409234189     -5.59543157696646      0.69699598021980
  C   5.38751240561980     -5.42758936069917      2.03421318973948
  N   4.79739608246814     -4.35325133093278      2.59229164935565
  N   4.31927469502408     -3.41690164946224      1.73282030977387
  H   6.71658629937424     -0.46388270933527      1.12829682474707
  H   2.08532875768801     -1.05096029495277     -1.33807000376169
  H   5.96536066944606     -6.43543640555473      0.19698441636886
  H   5.76618276015191     -6.18097735521213      2.71372649772226
