28
Coordinates from ORCA-job 25253optt
  C   0.86345595368751      0.25349629097790     -0.14932699696198
  C   2.36861381898678      0.00027382973173     -0.03582333693136
  C   2.86660366016109      0.04822962457863      1.41328860850788
  C   2.03414428902131     -0.80044336004414      2.33274620619715
  C   1.91078402311872     -2.18385383138602      2.02275046767122
  C   2.95100891047501     -2.83225458424182      1.16219666715176
  C   4.34278927178126     -2.87945383587235      1.78738353488598
  O   3.09985237191457     -2.38783081827234     -0.23280440239722
  C   2.72904480572326     -1.25350541823989     -0.82122235401906
  O   2.72955577125180     -1.21498041054893     -2.02892992211790
  C   0.96103799207672     -3.06226559387966      2.62601374815255
  N   0.70425617191061     -4.32184384070322      2.46712316636249
  S   -0.15970281846476     -2.42856871665656      3.89278853356464
  C   0.32937438349796     -0.76982762330829      4.07332724871456
  Cl  -0.50449865448216      0.07947602732309      5.34171460574180
  C   1.27979113855021     -0.14741732957015      3.30836115483504
  H   0.61352693119025      1.20408596338097      0.32576744335083
  H   0.30316829827931     -0.53191695275785      0.35882670547039
  H   0.56792748273347      0.28784336024836     -1.19755999963357
  H   2.88024193076283      0.78511075609302     -0.59990853698752
  H   2.81682245833256      1.08787881792924      1.74556317065378
  H   3.92654481421435     -0.22361956802075      1.41667090203075
  H   2.66216127985780     -3.86547444851128      0.99367287294840
  H   4.69094360203450     -1.89717991335334      2.09913312727422
  H   5.06295965806720     -3.31158923156397      1.08999521493914
  H   4.28866886961258     -3.50885452464038      2.67693023503335
  H   1.27335635756698     -4.73503018332108      1.73575510900545
  H   1.43756722813819      0.91351551462915      3.46956682655718
