30
Coordinates from ORCA-job 25251optt
  C   3.00555404489570     -0.03496095491910     -1.52400782396719
  C   2.28242527231266     -0.25563996995685     -0.19743579543434
  C   2.93801955997319     -1.30720980424144      0.67444012212965
  N   2.26782304842257     -2.20259712486877      1.32249686756870
  O   0.87581872373851     -2.14970146008977      1.05394885599197
  C   4.38829110189100     -1.39819732383996      0.77314056611405
  C   5.28152628730094     -0.30125793154354      0.85664201777955
  Cl  4.72671289242363      1.30709503622442      1.18973183789141
  C   6.69061817560127     -0.49952329326822      0.84938060535030
  N   7.07124678832003     -1.82799323899067      0.69916759879316
  N   6.25730985071593     -2.93726784419180      0.74542613523002
  C   4.98213098431494     -2.68485193395922      0.77175880603928
  N   7.56046244590991      0.46275353038102      0.95961283804997
  C   8.95030030638515      0.11412870387414      0.92021101654922
  C   9.75362469326085      1.38556861524929      0.96434846995444
  C   10.27784895944426      1.90801145944421      2.22092970982010
  O   11.13873124702750      1.28064687009077      1.27812614441704
  H   2.44912612200157      0.67336170245667     -2.14162851924485
  H   3.09007097191612     -0.97416996027809     -2.07417080321320
  H   4.01084199664265      0.35670571263656     -1.37605597048987
  H   1.25721794070062     -0.56446330050444     -0.38764169391243
  H   2.23751787344836      0.68392034790715      0.35655647288517
  H   0.55258439953267     -2.86603197453633      1.60372710533430
  H   8.04266300598340     -2.05438279390408      0.80388245663621
  H   4.33628352797879     -3.55386056628179      0.76606448848165
  H   9.23466470150085     -0.43367761221344      0.00325937957177
  H   9.27646900588470     -0.51370032709340      1.76982520903133
  H   9.52460197080087      2.09746094882639      0.17684851031557
  H   10.09830229601794      1.34267351762004      3.12961670030227
  H   10.43321180565329      2.97416096997026      2.34679869202473
