23
Coordinates from ORCA-job 25259optt
  Cl  1.45230437561418     -0.27782963261891      1.74149629482282
  C   3.02098019856005     -0.16652730958545      0.98312912477668
  N   3.78664752603128      0.85616085483139      1.40105626720071
  C   5.02402500403466      0.91510020050244      0.85078507666643
  C   5.49729621822108      0.00647843266936     -0.03683578530699
  N   4.68873247435594     -1.05966262874521     -0.39504734672536
  C   3.37224856486895     -1.14889158230327      0.06139770906452
  N   2.71402556881751     -2.23553896822615     -0.35584697839250
  C   1.40703998431005     -2.24639781019331     -0.63984069465849
  C   0.67863826630771     -3.40336217604653     -0.49357986598840
  S   -0.99423662582793     -3.56714937095049     -0.77432181364793
  N   -1.54123613849592     -2.10456060873028     -1.16596075313991
  C   -0.74715868960081     -1.08198899501897     -1.32497728685239
  C   -1.38821152729238      0.15047274069403     -1.69521987771098
  C   -1.88624847347317      1.19964983234756     -2.00258747223631
  C   0.73218262805050     -1.06378466388571     -1.25259976180081
  N   1.44760282735253     -0.10370509109663     -1.70187186859828
  H   5.65621266668388      1.73952407337745      1.15994950471781
  H   6.48416918144004      0.05038269524035     -0.47202956585027
  H   4.88665218999108     -1.62214854431970     -1.20518695832659
  H   1.15997485631214     -4.28989308636357     -0.10060948306568
  H   -2.33416954984393      2.12829954372858     -2.25970673620259
  H   0.85752847358255      0.63537209469303     -2.08159172874545
