27
Coordinates from ORCA-job 2525optt
  Br  0.56877938103082     -0.11437994764696     -0.31328712497362
  C   2.45491523438582      0.21423813298836     -0.15543757094876
  C   3.36611776067954     -0.77898842600257     -0.38099357417515
  C   2.97682511987092     -2.20849463718936     -0.65924834676160
  C   2.61668407634797     -2.95351069261181      0.64826370508358
  C   3.76463507547196     -3.11279224392771      1.60721904433734
  C   3.73284143759371     -4.15616301432768      2.63505392338527
  O   4.54527244589507     -4.29687817441473      1.48638573558742
  C   5.77345005823610     -1.35455807628300     -0.60340240385000
  O   6.99475279372093     -1.20925831759281     -0.52660908631491
  C   4.75382958814169     -0.42104146262643     -0.25099802256599
  N   5.14542314155567      0.82187590628792      0.19224219452580
  C   4.20858622941410      1.71334218800451      0.40764471289149
  C   2.83640158146543      1.51417928138245      0.22881999297726
  N   5.31995366859193     -2.58974368299653     -1.16136163460157
  C   4.04287208364342     -3.00408086738029     -1.37862901953814
  N   3.68254417489969     -4.02699497045113     -2.06027884400456
  H   2.09143505430130     -2.23778301280119     -1.29250571756889
  H   2.24207656160469     -3.94731420226056      0.39156256259702
  H   1.81750743583573     -2.39588876455158      1.14333292246192
  H   4.35511664783126     -2.22291439062604      1.80850608193591
  H   2.87592519591585     -4.82271841506941      2.67760933613263
  H   4.26871323414397     -4.01492642494406      3.56807341895159
  H   4.54968708801556      2.68768592056828      0.75453605588671
  H   2.11192202171500      2.29391600948254      0.40397649084565
  H   6.08119838667472     -3.16050293524716     -1.49875462175548
  H   4.49453452301709     -4.50730477976305     -2.44672021054097
