25
Coordinates from ORCA-job 25255optt
  C   2.22966118378023      1.56250970267167     -1.86961908035460
  C   3.46607967177501      0.71815286952749     -1.72494771727032
  N   3.39191355159506     -0.42737277047849     -1.19364566172493
  C   4.45218955466251     -1.37473368417934     -1.14960845377113
  O   4.81559635259233     -1.84400611847991     -0.07568619841536
  C   4.96733902592861     -1.75278372589085     -2.45665888533113
  N   4.53895227112128     -0.99931300111342     -3.48064390992267
  C   5.30188734124304     -0.79378220040177     -4.54984421776784
  N   6.22579389599269     -1.79506976161033     -4.94497891645355
  C   6.57023462773503     -2.73932662804097     -3.96579673151915
  N   7.56469969183233     -3.62295734321675     -4.39958816566535
  C   5.99777202716024     -2.72618114089111     -2.73726637032316
  Cl  6.44585792517983     -3.97929837273516     -1.61086420419388
  C   5.21892410301741      0.43151508511343     -5.15103424423356
  O   4.42842040688236      1.37690970957238     -4.44918629467201
  C   5.04318497533579      1.64770458864971     -3.25870486842447
  N   4.64874514232699      1.38585331081020     -2.09638647835192
  H   2.04430867072888      1.71168717345097     -2.93616351910311
  H   2.37723821014146      2.54383208795012     -1.41495562847585
  H   1.38371071088051      1.05691939455402     -1.41137358731539
  H   7.03336129002407     -1.44426449501316     -5.44536734596467
  H   7.34743820518478     -3.99565491534234     -5.31665600990937
  H   7.71211949875151     -4.37035055383262     -3.73481728780844
  H   5.63948105325291      0.75497361772553     -6.09006401615126
  H   6.01309061287505      2.13203717120071     -3.38614220687682
