29
Coordinates from ORCA-job 25267optt
  C   1.15589222201700      1.55280457376463      0.77155332232588
  C   2.67841948796150      1.51851243564285      0.71947963145120
  C   3.20508138100770      1.15640575250002     -0.66816739633226
  C   4.71022284058285      1.12057066005742     -0.72093833304149
  N   5.28074064266961     -0.02060515415256     -0.98433148514831
  C   6.66098585549072     -0.07450441919661     -1.04313930798504
  C   7.29233858289759     -1.41774339494241     -1.17851429166411
  C   7.36754569252744      1.10957395629434     -0.70391185057197
  Cl  9.10912545438153      1.11636462113697     -0.66242405554734
  C   6.66647327953561      2.24940391020131     -0.44441723319289
  O   7.36920590614428      3.40372791874262     -0.15647098286773
  C   6.70844451033396      4.56380974751628     -0.07758479759837
  N   7.33883172907690      5.62893739078021      0.17977875474615
  C   6.54090704056131      6.83102116593329      0.22941454737033
  N   5.31331080582030      2.31901999479827     -0.47302861892949
  H   0.78872346012766      1.81275031385756      1.76659517045455
  H   0.73497135067048      0.58081794204766      0.50209065823179
  H   0.76080051667750      2.28792171063056      0.06615196413466
  H   3.05955699450242      0.78993096622069      1.44061737540471
  H   3.09305979886870      2.48732915108319      1.00391478571337
  H   2.84455893126123      1.90572637175935     -1.38323195974468
  H   2.82781601460988      0.17929699863130     -0.97391841300133
  H   6.66111554377511     -2.04906726870530     -1.80614284936267
  H   7.40340324011768     -1.93534893983415     -0.21050839301630
  H   8.28593754095908     -1.35905187502384     -1.62424151518290
  H   5.63575021159491      4.48499539067113     -0.25278350515577
  H   6.63653586709281      7.30215503076036      1.21161271011275
  H   5.47340873900528      6.66035509814830      0.03404931122386
  H   6.90983635972880      7.55188995067647     -0.50550324282659
