22
Coordinates from ORCA-job 25285optt
  Cl  1.28169523488050     -0.40629386247390      0.84802829569598
  C   3.01630984133540     -0.17054080658074      0.65258700051436
  C   3.43815313559025      1.16170175692363      0.44619375740903
  C   4.77092113070952      1.51896798235956      0.27153293705678
  S   6.01514922676213      0.23529112938908      0.30850914575943
  C   5.04922287808445     -1.19924221588088      0.59564835604183
  N   3.74307483460543     -1.25601473832012      0.72515325596695
  N   5.32982042977514      2.69013368215901      0.07069610033431
  C   4.60760492597599      3.84998149104456      0.01371880059591
  C   3.32330923649972      4.30264433772723      0.11446275984049
  O   3.27476396250978      5.64706764141339     -0.04418203295079
  N   4.55181749653375      6.12971569912161     -0.25934458785250
  C   5.31524332327530      5.08256104048366     -0.22326412534128
  N   6.68240677726638      5.08926806482679     -0.38917298412646
  C   7.44208089548069      6.20500802959191     -0.60383985067925
  N   8.70086669545794      6.26702453970135     -0.77165831717851
  H   2.68116801184273      1.92423573947278      0.41231456833674
  H   5.62484902474758     -2.11339782428551      0.65819320908031
  H   2.36926895578286      3.84171569831084      0.28874208471147
  H   7.09206953407783      4.16275289311957     -0.33157274581263
  H   6.85143944617458      7.11869272102323     -0.62289684434240
  H   9.12176500263199      5.33772700087290     -0.73084878305976
