24
Coordinates from ORCA-job 25286optt
  C   1.51037235831487      1.47818751692252     -0.41890223126633
  C   2.33140595970186      0.28197952455517      0.04375871262926
  O   1.48783986161433     -0.85487604525992      0.12044500165284
  C   3.44004328088683     -0.05348741091463     -0.96123507303257
  O   2.88703063943920     -0.56842693701162     -2.15759614726789
  C   2.97115520290669      0.54554594493590      1.40067965341766
  N   3.80616431370806      1.60546883770887      1.45535854449400
  C   4.35166653935522      1.68613017766948      2.68406265179633
  C   4.12068166456844      0.86201034584072      3.73818341829368
  O   4.80639106122301      1.32757602829570      4.84873686963738
  C   5.48202767301659      2.45620571360047      4.48539600501953
  O   6.18968509968467      3.09338036160620      5.22527330494795
  N   5.20008073039640      2.68197946897841      3.16570037715869
  C   3.15217463579350     -0.15906815978668      3.62527280830255
  Cl  3.37783720006439     -1.67332146848662      4.54282560418173
  N   2.65131300815562     -0.30346394224347      2.34666176847834
  H   1.11300084807643      1.28279463939090     -1.41582050855248
  H   2.13304422724169      2.37185199700898     -0.43930117262834
  H   0.68156704992618      1.63595758598099      0.27205319845013
  H   1.59660122250631     -1.17189625812079      1.03951674878428
  H   4.11428117763955     -0.78596194399982     -0.50176945843020
  H   4.01192689584434      0.83972658226000     -1.20817397407026
  H   2.20847497964168     -1.19270473308066     -1.86845261960920
  H   5.57023437029390      3.46041217414984      2.65132651761285
