25
Coordinates from ORCA-job 25283optt
  C   1.63376297016969      0.05794285762685     -1.72488625073254
  C   2.73712508584543      0.14552118399831     -0.74344115345241
  C   3.28710445649828      1.22038007166683     -0.10617133348072
  C   4.28301537582813      0.59656561310442      0.72186897137854
  N   4.30871343606179     -0.69603872227584      0.57644873245355
  O   3.33900999398963     -0.99127565843959     -0.35054849333268
  N   2.83023019680088      2.51724829221730     -0.23659432968273
  C   3.61830488831451      3.53727506348839     -0.06450436209557
  N   4.97890603061838      3.38863731362425      0.16667029111780
  C   3.06271645483020      4.88424305589560     -0.03303585220564
  C   3.72959939424250      6.05855382221690     -0.45940835127599
  Cl  5.12831617291990      5.94511012698016     -1.53106768394441
  C   3.24576550103845      7.38983726892938     -0.30351859082165
  N   3.72959027201776      8.51264957516812     -0.70872023836889
  S   1.71630200938915      7.56840590952686      0.59222665494994
  N   1.07764448110539      6.04444002824136      0.82145341330543
  C   1.75022214852636      4.98261582345864      0.52234947843687
  H   1.22012199500721      1.05711161431316     -1.85261268908014
  H   0.85006577425900     -0.61539916796375     -1.37291900189173
  H   1.98697329712467     -0.30841402038990     -2.69085944247349
  H   4.95857660566447      1.05806438298651      1.42467966205012
  H   5.40599952718912      2.60489866596508     -0.30738318618236
  H   5.51858436371060      4.23413010049473      0.07762640391632
  H   4.60973609246990      8.35777348110323     -1.19526416523925
  H   1.26661347637854      4.03672331806293      0.74661151665163
