24
Coordinates from ORCA-job 2529optt
  Br  0.96084210512325     -0.28881566849617     -0.29237421177486
  C   2.85221685633570     -0.12315385421856     -0.09632673393292
  C   3.43266938921853      1.18840125230953      0.07985281914973
  C   2.72698279803734      2.41021839366944      0.15207265102292
  C   3.11412537402035      3.63317354474112     -0.29380038734104
  C   4.39647353818769      3.92327266100855     -0.97692338431095
  C   5.55312818800371      3.63991795963254     -0.03652692188962
  O   6.36523184284026      4.48909106570212      0.29291602238043
  N   5.60845119251688      2.37468425118209      0.45683724773216
  C   4.87817121025754      1.19235444193829      0.12160454570865
  C   5.61297019863434      0.04013897245701      0.00102309988027
  C   4.99729268896878     -1.22396518987391     -0.15051887857795
  C   3.59796445843530     -1.26697173665580     -0.19843112622999
  N   2.24712625214980      4.56633780154659      0.31015963669946
  C   1.23260714118000      3.90004759933835      0.93358241866434
  O   0.23968952249921      4.35561875584591      1.45115335810869
  O   1.52669436358978      2.57781239522809      0.86605391893791
  H   4.47915559474646      4.95784046573933     -1.30492720641793
  H   4.49025316708079      3.26199268939024     -1.84501306118837
  H   6.41690976237724      2.22828813983111      1.04355377205179
  H   6.69340134876396      0.11554256158943      0.06111667943642
  H   5.58433208524168     -2.12662860589532     -0.23415030541340
  H   3.08706259167961     -2.21115835159570     -0.33905643778819
  H   2.15224833011172      5.53696045558568      0.07312248509247
