34
Coordinates from ORCA-job 25292opt
  C   0.83772335131852     -0.01900192680948     -0.26104302067780
  C   2.34522183195547      0.19369221565113     -0.13569704309853
  C   2.88970798548426      0.33107630514107      1.29890839942388
  N   2.30942023780344      1.56010938508403      1.86621039404416
  C   2.38103193209482     -0.84301372824220      2.17554537734791
  O   1.04873483790964     -0.63912723693380      2.61088063136921
  C   4.47671363401076      0.35700527902523      1.30462131574523
  C   5.04811496239145     -1.00397728770880      0.86988234311495
  C   4.98395726379280      1.38095136776288      0.27181392534729
  C   5.00936803068297      0.79593924853330      2.69100474136346
  N   5.05881790755238      2.14311281682309      2.82883396865617
  S   5.95390617130402      2.83370494370204      4.04374224191436
  C   5.83145082102700      1.60580964216180      5.26513515011177
  Cl  6.19824001337067      2.16833168998305      6.91130203150125
  N   5.49727542047031      0.42028009105126      5.08293490256539
  C   5.32134185120100     -0.11487760593291      3.74880621045673
  N   5.41613048122566     -1.41425212093748      3.64757785788560
  H   0.55161835494345     -0.02462045413128     -1.31562932592834
  H   0.28316779016354      0.77647850231795      0.23803865828421
  H   0.52493750372200     -0.96040873646377      0.18787686703837
  H   2.61302052924545      1.09692670392795     -0.69162748852122
  H   2.85736171993549     -0.63531812529700     -0.62784639569065
  H   2.27177839846879      2.28218409210204      1.15630382802645
  H   2.92355507978137      1.92427480165912      2.59210867082453
  H   3.04525119305632     -0.98028951943619      3.03064131784731
  H   2.39999276238203     -1.76720766140084      1.59115352472108
  H   0.95741335713231      0.32788718941586      2.63594908041688
  H   4.84318876934103     -1.17171468721846     -0.19021602827258
  H   4.67088629964597     -1.83349281841063      1.45709936574869
  H   6.13017680708917     -0.99925029850436      1.00730497952086
  H   4.80165052702426      1.02417020063247     -0.74327821161220
  H   6.05876422872316      1.51366919421147      0.39968885234089
  H   4.52330936060387      2.35920388002301      0.40159439105670
  H   5.58477058514647     -1.77725534178159      4.58237848712795
