29
Coordinates from ORCA-job 25291optt
  C   1.25073507808400      0.01999909455053     -0.70571016523920
  C   2.69256707365753      0.10380164207747     -0.30415371934637
  C   3.40499812217988      1.26891292363276     -0.17605289554158
  Cl  2.60780472158586      2.80792118008913     -0.53467290147286
  C   4.75186517670626      1.30300251036783      0.26007195382962
  C   5.32202690775311      0.00190522989835      0.49841363959719
  C   4.54221320453097     -1.12054817101663      0.35030539018616
  N   5.08451286348698     -2.41078795824168      0.56570304379811
  N   3.25414298833302     -1.12421084078240     -0.02133171322235
  C   5.63921111317567      2.49413938426928      0.21108826576724
  O   6.40696270313735      2.64182694327542      1.42973608672513
  C   6.69804278023383      2.46033113426170     -0.89347657081679
  N   6.06793394507205      2.57194601564827     -2.19986595084110
  C   5.69771417265162      3.90870411132424     -2.59325492688101
  C   6.84084244393970      3.20990493465969     -3.23694953316304
  H   0.84965395466186      0.96758802162837     -1.05575316965342
  H   0.64767579638028     -0.32610393940774      0.14151991910699
  H   1.14308463100892     -0.73105641618376     -1.49252507002829
  H   6.35686036999926     -0.08747758521540      0.81029595126872
  H   5.78376405922812     -2.41772862506161      1.29419491330623
  H   4.33480629081075     -3.05664183625673      0.77527480432249
  H   5.03481282642942      3.39231714336148      0.06225289097184
  H   5.84567916333715      2.26811901236425      2.11868945845713
  H   7.24231408403757      1.51520932757523     -0.84651325506984
  H   7.41246193686535      3.28429751123776     -0.72622463981334
  H   5.94251233506958      4.71347343345329     -1.90511771662774
  H   4.74716830189015      4.00789079416420     -3.10151372991053
  H   7.83724641464244      3.55793963752361     -2.97826286896587
  H   6.74038654111092      2.79132538680300     -4.23116749074348
