25
Coordinates from ORCA-job 25294optt
  C   0.54328328681811     -1.73241764863723     -1.42639754648915
  C   1.97484542063212     -2.23183561739583     -1.30684382413144
  C   2.93982555425628     -1.09545261992158     -0.98860674455669
  O   2.47514641999571     -0.04664104593136     -0.55881556450447
  C   4.37344513065163     -1.26322762158989     -1.23335794168898
  C   5.25093732207362     -0.16647559454910     -1.40183705968541
  Cl  4.67464555419108      1.46632411514563     -1.50326227443948
  C   6.62015004250533     -0.32593975561744     -1.59712996974360
  C   7.15655618293557     -1.60402891352127     -1.62275967606501
  O   6.33292714022560     -2.67870070017188     -1.47513901083530
  C   4.96717607892690     -2.58550148474938     -1.25337138370791
  N   4.35844838807125     -3.68927849049313     -1.05805230761827
  C   8.52839015631277     -1.93610424737025     -1.80108037067550
  N   9.04581555620225     -3.12986827695830     -1.83035442796727
  C   9.45532160114909     -0.80873236018926     -1.97948947577322
  N   9.19203642708247      0.43749139367146     -2.01449099675559
  S   7.66697759377867      1.06557108581040     -1.84455948447962
  H   -0.12896823549735     -2.55998948613931     -1.66152844936758
  H   0.45320930122743     -0.97951268097781     -2.21077678230306
  H   0.21587999825573     -1.26650753017748     -0.49806296858004
  H   2.30244833000197     -2.74722743790802     -2.21030650322925
  H   2.06614901727585     -2.98170242953897     -0.51933928304108
  H   5.03172327614645     -4.44946306872979     -1.11570452032344
  H   8.30733016545696     -3.81920220283835     -1.70077009256743
  H   10.49730029132435     -1.09857738122179     -2.10396334147115
