32
Coordinates from ORCA-job 25309optt
  C   1.29463410252184      0.37154793289352     -0.84169779994659
  C   2.73665909436851      0.43505602888964     -0.35073358782639
  C   2.92488813459542      1.24181922110050      0.93365106226918
  C   4.37646931580850      1.09279288102961      1.43891188624845
  C   4.80524948706345      2.21082425538532      2.41882751061955
  C   3.54990372938768      2.86277970685999      3.02486376333226
  C   3.05417425134887      3.66759423704266      1.80992779043128
  C   2.44428193825372      2.69960443090904      0.76582564990139
  C   4.35896486696603      4.21598509440037      1.27979885046445
  C   4.54851836210282      5.30013083434772      0.38917560193657
  C   5.86877829453873      5.44847175656190     -0.12654906500190
  Cl  6.11938130641678      6.71737954464217     -1.30538223117938
  C   6.88720934304754      4.60376902308874      0.22872181500624
  Cl  8.48283059383041      4.77347023424255     -0.46968268323483
  C   6.69244277035762      3.51856215386253      1.13026920234286
  C   5.37604303175682      3.37006363496324      1.63235983926016
  H   1.20162780276099     -0.26848977566790     -1.72113124073442
  H   0.92695307223284      1.36258103195380     -1.11081297175233
  H   0.63648854283802     -0.02634864642622     -0.06461106369858
  H   3.36996230810013      0.87683404859383     -1.12674393272374
  H   3.11142790852722     -0.58095971265451     -0.18575843459909
  H   2.27684447214410      0.78350062657068      1.69152648507491
  H   5.06958280770171      1.09853818372610      0.59173263044321
  H   4.46042835956358      0.10499085675654      1.90725687391175
  H   5.49752601951506      1.81896865526862      3.16983844074444
  H   3.82967756520383      3.53822239822865      3.83482445429711
  H   2.81977765209158      2.14174042649803      3.40190031861158
  H   2.33397440901869      4.44818479134282      2.07185588853815
  H   2.70230466373072      3.06942096338383     -0.23245832874787
  H   1.35084548371584      2.70378104194243      0.83219414957032
  H   3.78640553637316      6.03382705999246      0.16902554776961
  H   7.53174477411772      2.92735708027129      1.46707357867164
