28
Coordinates from ORCA-job 25311optt
  C   1.42210479037518      0.43539781214513     -1.25317692290152
  C   2.55873284343360      0.13955109470379     -0.26499716687115
  C   2.62425728425567     -1.34908433066938      0.09087992554461
  C   3.89294374124529      0.73884355888712     -0.68690343385209
  C   4.28504704981790      1.90852485798133     -0.04078919545187
  C   5.26501913550505      2.89155413322984     -0.33454291762270
  O   5.38924548779976      3.92910254109008      0.36731526214346
  C   6.09939377603641      2.79333492703065     -1.56168281696780
  C   6.40741013273386      1.60081971377093     -2.23129988785804
  O   6.03248459107598      0.40053261780750     -1.73066071192606
  C   4.65853296870246      0.09082048120496     -1.71207046360799
  N   4.32552214472190     -0.80122347890016     -2.56897336758641
  N   7.16832628403746      1.54729166968636     -3.31767072084411
  C   7.66401210476820      2.66897637439865     -3.77513657435686
  Cl  8.67105110647062      2.55419999033467     -5.20999559537468
  C   7.46417428426787      3.91596608996491     -3.20658998404308
  C   6.66829183414557      3.95506394929221     -2.07584529314091
  H   0.46736641733964      0.07036243511777     -0.86354966427308
  H   1.58328639555012     -0.03516857094990     -2.22479351823047
  H   1.34099269192915      1.51037446006365     -1.41906902056682
  H   2.29364507956126      0.66080026762462      0.65853551804111
  H   2.86635336473965     -1.97465098616359     -0.76830320780860
  H   1.66430915632748     -1.68563355979748      0.49147057738573
  H   3.39263189895183     -1.52175648955823      0.84595954004036
  H   3.67548903134086      2.21437762025564      0.80579348582053
  H   3.32923828430426     -0.97813044111294     -2.50576831688884
  H   7.91931696116715      4.79906014503200     -3.63003087583315
  H   6.47382115939568      4.87769311752986     -1.54410465296952
