25
Coordinates from ORCA-job 25316optt
  Cl  2.37013685664205      1.53056461316036      0.27089401950925
  C   3.50451276519455      0.19085924552185      0.25860817872780
  C   4.27598720077021     -0.05723122651315      1.40161892309643
  C   5.18620906449212     -1.07978488269687      1.34608674629908
  C   5.37297419943881     -1.80426405923353      0.13804265941638
  C   4.37472022695712     -1.58152356252970     -0.87454068032976
  C   4.09943050118070     -2.62685387394846     -1.93730818702028
  C   3.58333427716180     -3.89329256403350     -1.25012716510337
  N   2.37370367476010     -4.19385250084548     -1.04522081727831
  N   4.63181288987292     -4.70156216365757     -0.75456759516277
  C   4.81873763574688     -4.92504408287050      0.60695812973181
  O   3.93812011310656     -5.10301159615753      1.40699837703724
  C   6.30429121441570     -4.83813378316313      1.01768247593213
  O   6.72183857979695     -3.47992959968170      1.14087335856654
  C   6.41059694786999     -2.76028399657387     -0.03519970826454
  O   6.89716658372432     -3.15804933214846     -1.10950351865539
  N   3.49347003429279     -0.59632559499784     -0.79973064593968
  H   4.13814924034989      0.53787361760076      2.29319474393626
  H   5.79698036070599     -1.32609019976709      2.20496435628943
  H   5.00320082670622     -2.86057052707699     -2.50432370176406
  H   3.32994479483479     -2.23814559914746     -2.60138289634536
  H   1.78176004561776     -3.44504409524993     -1.40311920434373
  H   5.51283401558771     -4.47452114991779     -1.20952774112769
  H   6.41270582093341     -5.29170835801204      1.99945851750617
  H   6.93138212984057     -5.35707472806034      0.28517137528641
