29
Coordinates from ORCA-job 25325optt
  C   1.13283930816521      0.44587771663575     -0.19674601093522
  C   2.58635853429712     -0.00065335431999     -0.03375297181286
  C   2.96675938871194     -1.02005770935989     -1.07047186323926
  C   3.64720129844244     -0.71566960937240     -2.19924493576582
  Cl  4.17902152852376      0.88082818389913     -2.64601138994822
  N   3.87548183110698     -1.67910615415833     -3.16889092993211
  C   3.59504511341041     -3.03794176964716     -2.95197169768461
  N   4.07751821695137     -3.82010496910526     -3.85591571851054
  C   3.89358286238020     -5.24862775559730     -3.80816942700271
  C   2.81035785133681     -3.26728441935919     -1.74563525354596
  N   2.36332578719120     -4.54234579236018     -1.51807425413534
  C   1.65281433845014     -4.80691222214327     -0.48139265881655
  N   1.12067072324764     -6.09679319957284     -0.30231305669084
  C   1.11225365561839     -6.59684460627630      1.05665668087547
  N   2.53226036388749     -2.28887787260091     -0.85378031148379
  H   0.82877700774175      1.12952985129712      0.59996450448176
  H   0.47961534912544     -0.42732064431890     -0.17909093536611
  H   0.99795125786071      0.95123605651916     -1.15520790559820
  H   2.71369736013678     -0.46938374638020      0.94484156787570
  H   3.24987354609246      0.86404765989860     -0.08157538798946
  H   4.56111917350849     -1.51082680638770     -3.88769742023859
  H   4.44459388870654     -5.68854533454859     -4.64436433371415
  H   2.84349417134309     -5.54719533086102     -3.89357534841175
  H   4.26183730843983     -5.69678455376008     -2.87860546878640
  H   1.36538744498037     -4.07032970181224      0.26672367855202
  H   1.55859403521511     -6.73098765916526     -0.95859321446617
  H   0.54422917467907     -5.90883759815862      1.68549699629526
  H   2.11483193541142     -6.69893259503385      1.49647810139438
  H   0.61250754503777     -7.56615606395016      1.09191896460015
