30
Coordinates from ORCA-job 25332optt
  C   0.95107657645349      0.16414778963455     -0.41543497264009
  C   2.43096858538615      0.00020641631668     -0.05122671892747
  N   3.06556000398855     -1.01964919053797     -0.91621468008610
  C   4.00931584542449     -0.47492207225082     -1.88419177629686
  C   3.97372735509460      0.99816853627809     -1.59162612754653
  C   4.47567549573736      2.03687480547122     -2.32556183829447
  N   4.30988141433883      3.35626996954274     -1.95433646369563
  C   3.56824718590447      3.58643673324002     -0.86714745564839
  N   3.40637290339959      4.93517387812651     -0.53239109241171
  C   2.95666531110907      2.59031627296674     -0.11382354703265
  Cl  2.21986927737011      2.99119399957831      1.43694641271528
  C   3.23366700547854      1.22167224656380     -0.42163317762314
  C   2.81290068655303     -2.34058270451080     -0.81338230405446
  N   3.27695982961093     -3.30338158790983     -1.52211967757006
  C   2.60436700980074     -0.41690049348151      1.42866307789685
  N   3.90239137042470     -0.35721595515860      1.85836754141578
  N   1.69273927786697     -0.84892820737651      2.20844286541326
  H   0.89432325406787      0.48153184856773     -1.45641111997502
  H   0.49032335775114      0.93204285584642      0.20767535587894
  H   0.39656513169725     -0.77210658670020     -0.30908081246818
  H   3.69362158633392     -0.70501295434646     -2.90890610747784
  H   5.00134479019885     -0.91950409739120     -1.73270649278903
  H   5.05753825624422      1.86496344697594     -3.22454950850603
  H   4.14955795964331      5.48619066607539     -0.93625515002469
  H   3.26915662110435      5.10442652044324      0.45277723134504
  H   2.12565295173329     -2.58473313040990     -0.00234285983087
  H   3.90791879993836     -2.95298068071311     -2.24175808953082
  H   4.47807235194693      0.31851539070681      1.37438419335518
  H   4.02052382005497     -0.42920674087928      2.85555940271197
  H   0.79601598534382     -0.86400697466802      1.73528389169778
