34
Coordinates from ORCA-job 25333opt
  C   0.80356773240301     -0.34495500617560      0.09273205427143
  C   2.31785641063106     -0.15742476071844      0.03563038449757
  C   3.02634003502838     -1.43983708876690     -0.41547100088846
  N   2.82926938480963     -1.77283718233560     -1.82247583081437
  C   3.16767332010368     -0.67577384453551     -2.74617655357818
  C   4.69168381426781     -0.57945878356937     -2.84666836567980
  O   5.26600510113420     -1.86739305612331     -2.97407267327203
  C   2.49077191785585      0.65538636136165     -2.35870493964353
  C   2.73811965655546      0.99143154273623     -0.88870791136317
  C   2.83383118545932      1.75383174288289     -3.33989041218660
  C   3.62551600196981      2.78511231868169     -3.00474588764960
  S   4.02110036060809      4.08648996200961     -4.11753836376594
  C   3.84925955456652      3.25901969005329     -5.64694242541205
  Cl  5.23442421248017      3.40264791394202     -6.79894045439924
  C   3.01119261146789      2.17458559798551     -5.76982949335768
  C   2.28860457066376      1.56452995176551     -4.70456296074187
  N   1.26624910211656      0.73055569847286     -4.84421624177800
  H   0.53702077630884     -1.12039370522340      0.81522771025138
  H   0.39428732761461     -0.63398802923133     -0.87639703094862
  H   0.30759837452287      0.58111439788982      0.38958803389341
  H   2.66479545572002      0.07113184466014      1.04947441611930
  H   2.69884204947311     -2.29095628697070      0.18809837991829
  H   4.10279942968386     -1.32692761538558     -0.25170036053397
  H   1.87459291253143     -2.06476321103717     -1.99008135578141
  H   2.78489041894314     -0.96205662851103     -3.72635151932515
  H   5.11430156119687     -0.06957483516661     -1.97151166114140
  H   4.95315512587022      0.01214030665842     -3.72435448383548
  H   4.61299097959204     -2.46687169161757     -2.58227778997972
  H   1.42037577186962      0.48452338144816     -2.50499175820136
  H   2.19619361310204      1.90560797040468     -0.63024445846995
  H   3.79859861235954      1.19607778866984     -0.71555691635072
  H   4.08920900896584      2.86369781608556     -2.02852101529970
  H   2.91267872986531      1.72271954781625     -6.75492291562127
  H   1.02320488025933      0.67660789184397     -5.83189619893203
