27
Coordinates from ORCA-job 25344optt
  C   1.25850359773844     -0.17210231922840     -0.18553982207810
  C   2.78364612543159     -0.20554865733936     -0.05979485835815
  C   3.30839680932090      1.22646344637340     -0.09210247455096
  N   3.11118781145311     -0.79976374646430      1.31527165706138
  N   3.55910797913787      0.05970289756954      2.22352218523790
  C   3.80432543691909     -0.30638226851389      3.41712291680334
  Cl  4.39511991133996      0.94379687520930      4.48413763935098
  C   3.63466333038650     -1.65341639461734      3.97726411452219
  N   3.88699438207391     -2.02454298749247      5.18368383122820
  C   3.12716402506108     -2.51494869414516      2.95973188880768
  Cl  2.83144959134190     -4.16427509952359      3.38478971698297
  C   2.86729181231795     -2.11369201643850      1.65770999906570
  N   2.35926593291901     -2.93894188972290      0.72864129890561
  C   3.40033593538531     -1.02555940887707     -1.19572458495560
  O   2.75478169074687     -2.03769287672838     -1.67374956610306
  C   4.67433127891326     -0.66191901710324     -1.66696483356010
  C   5.76432591949752     -0.33195629675264     -2.09618813211510
  H   0.83889885106919      0.42331945460761      0.62837215331795
  H   0.82337595774791     -1.16749915095052     -0.16808689071521
  H   0.99837957337211      0.28928292374124     -1.13854497023341
  H   2.81797310482542      1.84745490187370      0.65513726003727
  H   3.10028244085533      1.61796577177645     -1.08761952149565
  H   4.38283942089858      1.26158553786413      0.07180399300578
  H   4.24130204436243     -1.23748576269757      5.71959194537754
  H   2.31946680356891     -3.90614446740316      0.99998404005054
  H   2.42174489581681     -2.69748881350488     -0.30053171542781
  H   6.73684533749893     -0.08121194151197     -2.44091727016189
