24
Coordinates from ORCA-job 25347optt
  C   0.99627895465740     -0.30991420180864      0.09886761315595
  C   2.46740903202537     -0.15731001470768     -0.13942518029068
  C   3.07235505816805      1.08759766034066     -0.28884311899854
  Cl  2.06318804803612      2.51897692437029     -0.45344127931617
  N   4.36592410694980      1.35105012825108     -0.31466033434169
  C   5.17500111877303      0.32532103082051     -0.15670923821226
  Cl  6.88512489798557      0.66545226712249     -0.10191931461839
  C   4.74326914704223     -0.97779142004162     -0.04233851558836
  C   3.35622316475140     -1.26031302198358     -0.10229561004810
  C   3.09816585515910     -2.67515370653246     -0.02298727156148
  C   1.88444868345729     -3.35569977437910     -0.35309534516490
  O   0.89467705341920     -2.91634896035981     -0.95229950532076
  C   4.29475465822930     -3.40754572922634      0.24122882354357
  C   4.45785810650126     -4.86896805154779      0.07545293190234
  C   3.94820981743055     -5.76598197632833      1.18242902193696
  O   3.53655258246723     -5.42232122882129      2.25313940931018
  S   5.71085862544644     -2.38793719581407      0.23649102730199
  H   0.58069979079005      0.61085003217896      0.50269019631723
  H   0.83259711062149     -1.12198507578059      0.80623933276077
  H   0.46032364323292     -0.59000841684931     -0.80684208871068
  H   1.88540309970733     -4.42425835040927     -0.05903889434183
  H   5.51342734027232     -5.14559707295041     -0.05331536258205
  H   3.95608996125982     -5.23559733722107     -0.83908595200005
  H   3.98216014361666     -6.84851650832265      0.92175865486697
