26
Coordinates from ORCA-job 25348optt
  C   1.07571207220332      0.00035344559102      0.11228565710014
  C   2.56977456080639     -0.08019590881935     -0.03621218846725
  N   3.19883665206272      1.06219031371257     -0.16293643923197
  C   4.54988486322771      1.02523752968419     -0.39197879662800
  N   5.28230497442235      1.99993466560211     -0.75103099418292
  O   5.21973117850663     -0.16049728645244     -0.19362495681423
  C   4.57673656686132     -1.35372955506779     -0.05877317060143
  C   3.19310302218273     -1.35265012915316     -0.05257284695156
  C   2.36007403802546     -2.59834085123745     -0.14716874073550
  C   5.45235397452528     -2.47740270271132      0.03461019736248
  C   5.18985480752450     -3.56956101392570      0.89482891809830
  Cl  4.14943498618529     -3.33391584907440      2.28821228096986
  C   5.78411519910882     -4.83465172197320      0.83905119072545
  N   6.67776324182245     -5.24375057538425     -0.02539926495387
  S   7.33088524554870     -4.17167472520716     -1.10831803416740
  C   6.63998838489581     -2.54511570703145     -0.83096274700605
  N   7.23948790078513     -1.65378144536197     -1.51147574636763
  H   0.78442908908140      1.03846073084353      0.25101862967873
  H   0.73208686051126     -0.60125677644441      0.95569368190403
  H   0.58344429766812     -0.38985225443597     -0.78211496000310
  H   4.67947808525975      2.81325375939475     -0.83523322994213
  H   2.97710955311373     -3.46036298068667     -0.39316284975468
  H   1.60637197651257     -2.49049448523222     -0.93135879168121
  H   1.83780527590164     -2.82579496691122      0.78489667068316
  H   5.46991701894594     -5.56551922901497      1.57870938910571
  H   6.83531617431089     -0.73188228070305     -1.37198285813893
