28
Coordinates from ORCA-job 25352optt
  Cl  2.46482342174494     -0.10788368946266     -2.31864809218222
  C   3.34486006412063     -0.23138674786937     -0.73903766759445
  C   4.70538122271618     -0.02520810512750     -0.68525852914955
  Cl  5.37504385317782      1.34491295142604     -1.59105622520024
  C   5.62475001901258     -0.75996132039769      0.10597270232003
  N   6.84931710588682     -0.43361814695661      0.41574863620884
  C   5.19948012060716     -2.12162425910120      0.59694904984345
  C   3.89796584100350     -2.38808381040519      0.86818658658865
  O   3.32431090877058     -3.44504572093076      1.55615509049194
  C   3.13159266911805     -4.69867155065081      0.85771535954604
  C   4.53230251303179     -4.95606102215033      0.36709348366192
  C   5.40706264350081     -6.05755783091600     -0.19465306069426
  C   6.80133351779135     -5.37837221843247     -0.03281263758740
  C   6.76967876919883     -3.85391101165820     -0.27802821269243
  N   7.16395346161389     -3.33285508882703     -1.35958009124038
  N   6.34981686414366     -2.98405101868515      0.82250741710028
  S   2.60575582023597     -1.25978440042420      0.43550606727429
  H   7.08531376633511      0.47336396697944      0.02670713936241
  H   2.38241206673549     -4.57182844066179      0.07146985983762
  H   2.76060040731138     -5.38648466000076      1.61650356241850
  H   5.08576121469159     -4.63816030951254      1.24555640977203
  H   4.64227633045816     -4.16735660395817     -0.37231009981163
  H   5.19835710850167     -6.28026737658792     -1.24303181971641
  H   5.38412160015791     -6.99389384766552      0.36616080196770
  H   7.13606035675694     -5.53559544872344      0.99468345667678
  H   7.54282878845973     -5.81626581725629     -0.70292416749605
  H   7.47643228620017     -4.05515003534926     -2.00893392324262
  H   7.09940725871718     -2.27919843669453      0.88435890353717
