33
Coordinates from ORCA-job 25359optt
  C   0.82191085282022      0.60305332378997     -0.27650339512280
  C   2.22157263203472      0.15820973074177      0.15963521588445
  N   2.17511204639844     -1.16029203191239      0.80440068012294
  C   3.17524619614341      0.25775540027371     -1.03604767810229
  C   3.79468764767745      1.45141962687000     -1.13715527129169
  S   4.68054450363846      1.93489640870944     -2.56186325973324
  C   3.67439616527715      1.14559438528015     -3.83848600365214
  N   3.53626993333531      1.71848685663544     -4.99653309372654
  C   3.18948726219686     -0.12133886407825     -3.45204371364266
  Cl  2.37727262072493     -0.96715808775703     -4.78992680619666
  C   3.16009466246907     -0.68540498342510     -2.15191590778888
  C   3.40042075667169     -2.19361860950815     -1.97882624515345
  O   3.93957341515670     -2.52785852512685     -0.69880034061630
  C   2.18295128004051     -3.11203756543679     -2.26028270016226
  N   1.38100673090860     -3.34624734355665     -1.04965327249053
  C   4.54991298501257     -2.60593059425633     -2.92500490179798
  O   5.01734474766180     -3.91160582217904     -2.62663681987956
  H   0.13462319688198      0.59525449491664      0.57465519643418
  H   0.44834909210805     -0.08631558687222     -1.03703751764127
  H   0.84694946675705      1.60350638956573     -0.70852401957775
  H   2.59594174694720      0.85718975829396      0.91132051316122
  H   1.52691851969174     -1.76853106515581      0.29968390674467
  H   1.84556423690665     -1.06893614307696      1.75665234602062
  H   3.67486245830483      2.21855225856418     -0.37988770327255
  H   3.98597027928634      2.62964168822807     -4.98847305424624
  H   3.46300326028774     -2.04535081873183      0.01126209410556
  H   2.56313070750186     -4.05275590265011     -2.67457804545400
  H   1.54889045513186     -2.63916862555261     -3.00442284853461
  H   1.94614650379719     -3.88123368086387     -0.39752272486203
  H   0.57399494515194     -3.91272280856944     -1.28024946314700
  H   5.34861977424243     -1.86895761732034     -2.80221226623676
  H   4.22350247994279     -2.60725986219007     -3.96177686634883
  H   5.10372843889237     -3.92783578364917     -1.66524603379558
