24
Coordinates from ORCA-job 25369optt
  C   1.03908664649270     -0.10217578669171      0.05504274056061
  C   2.54796119929776     -0.04600133795170      0.04938191852762
  O   2.97630725135982      1.04575951674944      0.86075624064743
  C   4.26141492751687      0.67986706950568      1.30666202275381
  C   4.17920357781259     -0.83509698483902      1.38293574675695
  N   4.93356539255971     -1.67273493753100      1.94590739761670
  O   3.05423737977025     -1.19700025398951      0.74922052903377
  C   3.16185012340127      0.08079963433120     -1.31774106505077
  C   3.14707146719280     -0.88340155435433     -2.33148016887100
  Cl  2.84150207157706     -2.56447573438851     -1.97948471583456
  C   3.37855410000721     -0.50299663595788     -3.63865759067118
  N   3.63071621092587      0.75794030601617     -4.04271742408214
  C   3.58578282183786      1.74063701345612     -3.10092895692369
  N   3.84690504988853      2.99316107105668     -3.30060664660065
  N   3.20066430728206      1.40000894507085     -1.79801753383502
  H   0.66328536864916     -0.13418054041264      1.07798305057535
  H   0.72412624533911     -0.99224386740226     -0.48839749889635
  H   0.65948607587061      0.78169017490617     -0.45686135584700
  H   4.44437534936925      1.12600873711521      2.28361485932704
  H   5.04080785288141      0.98046455732445      0.59850753145070
  H   5.70263818832474     -1.18514207378321      2.39817211996480
  H   3.39528705968474     -1.27288091587448     -4.40368462358345
  H   4.07483369537422      3.09360016396235     -4.28551915856296
  H   3.30433763758430      2.14539343368194     -1.12808741845600
