29
Coordinates from ORCA-job 25368optt
  C   1.05629102897933      0.47967662686094     -0.65219591329534
  C   2.48399926132274      0.17728336535592     -0.24270572580506
  C   3.28269554162673      1.27706265919892      0.19770768951081
  C   2.59728258530475      2.54505034178956      0.64061960130592
  C   4.69295425129065      1.29194871234935      0.12433273582826
  N   5.36689339874014      2.51243784597680      0.38338470455567
  C   5.40565032952570      0.16718238174988     -0.20349518736974
  Cl  7.12206295929057      0.24118855222142     -0.53080502328808
  S   4.72941354630633     -1.43340887150149     -0.27732887876554
  C   2.96522822992698     -1.12252285830541     -0.45509228604499
  N   2.37376821575610     -2.26451855356909     -0.71938362784205
  C   1.00950654418224     -2.47387717443621     -0.32633189834518
  C   0.80344717188946     -3.92040371143702      0.06384881395926
  N   -0.36164261544995     -4.33346281469654      0.50848859747672
  S   -0.28919842058127     -5.93685107929418      0.86558875971168
  C   1.34367577921908     -6.11700304433609      0.41702288659413
  C   1.82120486098771     -4.91741790740371     -0.00958396698870
  H   0.99145869774894      1.48287351247096     -1.07942968938821
  H   0.32516543784966      0.43231345349927      0.16275113336264
  H   0.73144516730418     -0.21828823019885     -1.42099992237859
  H   1.60576609897164      2.33508289321026      1.04179703081728
  H   2.45721976328889      3.27414531596560     -0.17264416093724
  H   3.17364732600011      3.04405823494761      1.42236463101989
  H   4.91072068468394      3.30055709879210     -0.05600038154465
  H   6.33453178436001      2.47308114365580      0.09644090753666
  H   0.27056967089532     -2.26239621052851     -1.11407027409279
  H   0.71446202447019     -1.85955171718825      0.53626303392955
  H   1.85968136030164     -7.06187655634221      0.48642034006799
  H   2.81809931580810     -4.69436340880681     -0.35496392959031
