28
Coordinates from ORCA-job 25367optt
  C   1.20500054027188     -0.06351337782073     -0.71333467336063
  C   2.65955727176423     -0.06643867376765     -0.36198756534654
  N   3.31366749911588      1.14784892588849     -0.45138220851822
  C   4.63386493846637      1.11776814814873     -0.12964461074615
  C   5.39989667402954      2.41260986051487     -0.18053007892610
  C   4.69991505825789      3.58257961983009     -0.91635161088429
  C   5.21025353401644      2.94295974166050     -2.22788918239877
  C   6.42339139664907      2.57428052642940     -1.34479997280550
  C   7.02318549286688      3.94956227112481     -1.03502727288136
  C   5.70626565593460      4.72159400996708     -0.71260581678795
  C   5.23408670051862     -0.05172662269838      0.26117839116918
  Cl  6.93830870342338     -0.04465597896113      0.73263403704744
  N   4.62874167818034     -1.25982013243011      0.36629540214993
  C   3.32258620872431     -1.19588344386419      0.02899638264225
  O   2.66353032486647     -2.40236397710909      0.11163396769749
  H   1.06099606258066      0.26650915704114     -1.74788139214242
  H   0.66237391451866      0.64597883081262     -0.07971139397985
  H   0.76259296390352     -1.05154303447189     -0.59516481361262
  H   5.80562254794012      2.65545271357212      0.80766617844727
  H   3.64412473268271      3.77816616620337     -0.75610049711655
  H   5.38870797659352      3.60313895979265     -3.08229368440106
  H   4.61445013746547      2.07869292896464     -2.50942741057096
  H   7.10549895962284      1.76729860434685     -1.60101196830765
  H   7.55844976953656      4.37316561682100     -1.88764283213033
  H   7.70605757215121      3.91490427608244     -0.18410264561506
  H   5.53283745452701      5.55358522751755     -1.39867600914540
  H   5.69072209612238      5.10962420080670      0.30727573182843
  H   3.34631413526926     -3.01277454440192      0.41488554869546
