33
Coordinates from ORCA-job 25370opt
  C   1.78874749590723      1.34086050615541      1.03597168291577
  C   2.46625485397771      0.26587849746701      0.19297198517950
  C   2.65778081721298     -1.02420522256539      0.97013980590652
  N   1.38270873018553     -1.64664509105894      1.35404083320541
  C   1.67154965215020     -3.02969129898674      1.54659292893195
  C   0.87040557011355     -3.95408227763132      2.15359209066961
  N   1.30714183111815     -5.28880992363167      2.12617192493249
  C   2.56414319739650     -5.72641209034759      1.67780667681938
  O   2.87684990307106     -6.90743427710505      1.88825426594443
  C   3.32682985272052     -4.72918242910984      1.01627526634679
  Cl  4.96681056901465     -5.17650879473146      0.60092073644391
  C   2.89388100449160     -3.37301164600406      0.95429580286494
  C   3.45838827497767     -2.15405723121979      0.25551395227168
  N   4.89136393167667     -1.87160737930903      0.43641169489820
  C   3.19031928168909     -2.16199837751111     -1.27297099730075
  C   3.89387949909951     -3.28669509400389     -2.01860022721907
  O   1.80066062161411     -2.21928050181129     -1.55620654052504
  H   1.69570026524778      2.27986268606945      0.48730091263917
  H   2.35741193942430      1.54203108152903      1.94795938174340
  H   0.78352580225656      1.02822667781922      1.32603866752052
  H   3.45138075899248      0.61256710515127     -0.13206930420020
  H   1.86714122876684      0.05345759190714     -0.69361151266619
  H   3.24284925889366     -0.78993200822323      1.87548180480400
  H   0.98173158121945     -1.22657952174933      2.18289618645005
  H   -0.09962247373524     -3.75088082682537      2.58042312384366
  H   0.82374599949093     -5.98750161826266      2.66399046001038
  H   5.42216042583463     -2.64049908436510      0.04154611914282
  H   5.08464971369194     -1.92152209598229      1.43316773787377
  H   3.54089153788607     -1.20176910315637     -1.66317919206284
  H   3.54636181498972     -4.25407625092539     -1.65510120043872
  H   4.97842598872348     -3.24539948391662     -1.91135605186639
  H   3.64970526323693     -3.20297432051420     -3.07880999575547
  H   1.38622580866340     -2.77312819715052     -0.87985901932373
