22
Coordinates from ORCA-job 25372optt
  Cl  0.99335121595914      1.02177871947949     -0.45483535600032
  C   2.62906227554918      0.46520159431893     -0.23169469753843
  N   3.51918521112974      1.35491184749608     -0.12140922776666
  N   4.79151292070637      0.97944540338600      0.04589717014897
  C   5.78605474661605      1.93855183143719      0.17119413153961
  N   5.71316164026989      3.21075281190312      0.12275888506775
  N   6.93814958439357      1.20776711849557      0.35993339772964
  C   6.71452405028710     -0.17652486526594      0.18568410242827
  C   7.81276150740686     -1.04152268295136      0.08777247417306
  C   9.14212759473705     -0.76209922360423      0.43552023017902
  N   10.05312561696364     -1.72168057414478      0.15484847513912
  C   9.50006509002189     -2.74991908018727     -0.41750814073911
  S   7.78650766224859     -2.61102587260607     -0.67549625085771
  C   5.32816294957448     -0.34841220142640      0.07868712311093
  C   4.50983915938795     -1.48333565951227      0.21440178468430
  N   4.75562949534966     -2.70487620998154      0.54763396878925
  S   2.74759220271661     -1.27752067868885     -0.16502994086178
  H   4.74542673250226      3.48242715415374     -0.02587680468869
  H   7.81869117312602      1.63236318342363      0.12017524822894
  H   9.45299483210904      0.13418689802429      0.95347165082880
  H   10.03035943596560     -3.64777661218329     -0.69637416673142
  H   5.73171490297921     -2.82369290156604      0.80624594313646
