30
Coordinates from ORCA-job 25399optt
  C   2.30637691616908      1.25722370191185      0.60579738029281
  C   2.43152729415538     -0.13711077251654      0.01426433383025
  N   2.89177954329201     -1.08400300611141      0.99509269260335
  C   1.96980696841993     -1.47581303517816      2.06591081524849
  C   2.53652873108078     -2.90188814661495      1.97711230306913
  C   2.99438968651481     -2.50536008464251      0.56237980804762
  C   4.31656558988810     -2.98222489000555      0.04013776385615
  N   5.21954219786245     -3.33210530023380      1.00961659361166
  C   6.40690261221655     -3.72293994591587      0.50726803457121
  Cl  7.61944674587475     -4.21839105489789      1.69926158413807
  C   6.73047090076718     -3.78138897616936     -0.82181904353805
  N   8.00201166773512     -4.14931256141174     -1.29153840218631
  N   5.83235615745297     -3.45162733422152     -1.78012719478626
  C   4.61115907123078     -3.04418043110819     -1.30404420418110
  C   3.65900642631621     -2.66836493201124     -2.40645434131198
  H   1.95075581088373      1.97130056759687     -0.13916604505191
  H   3.27316616581927      1.59167049116171      0.98294573235537
  H   1.59957527009728      1.25918028320535      1.43887671901353
  H   3.14928248059983     -0.13822558322177     -0.81064529345231
  H   1.45521279517767     -0.45201977182530     -0.40571239728393
  H   0.91702710242186     -1.43475551176244      1.73659531589933
  H   2.07331031147429     -0.92425973250103      3.00304506165295
  H   1.84139820409218     -3.73403998852253      2.06721421363049
  H   3.40639280871323     -3.04526187475181      2.61280621453962
  H   2.18572059193464     -2.71983318295279     -0.15085575957441
  H   8.49254080064710     -4.77457670371795     -0.66861215190619
  H   7.92095355474906     -4.52070879185572     -2.22823982297826
  H   4.08118281467894     -1.84048536078064     -2.98432283142645
  H   2.67225854716992     -2.37182498664069     -2.05742446078741
  H   3.55435223256479     -3.50867308430431     -3.09936261789545
