30
Coordinates from ORCA-job 25393optt
  C   2.91463597046373      0.49915839167356     -1.46592158193604
  C   2.49964221994429     -0.08573001763339     -0.11419093654767
  N   2.90190794182764     -1.48316724628001      0.03382541960647
  C   3.04084771472024      0.72750424458235      1.09175360484766
  N   2.80241346268587      2.16043239980499      1.01148268817765
  C   2.42563196310305      0.21128288044875      2.44285208595219
  C   0.93730834704847      0.20730425914175      2.48121715181777
  C   0.19811483804887     -0.94183309761704      1.99931398346127
  C   -1.18258412348084     -0.95448269355850      2.07468666280983
  N   -1.90622295201541     -2.09224936357958      1.64815977379780
  N   -1.94299394139426      0.02841286293224      2.56621186400427
  C   -1.25039731792437      1.09700469741625      3.09211689256644
  C   0.11736346989328      1.19400113734591      3.05285640147010
  Cl  0.83952584525462      2.62068955078845      3.80121788321323
  C   4.50683623630868      0.50958762405832      1.13352483843935
  N   5.63083366013222      0.27165126410400      1.13241018235427
  H   2.56620461322292     -0.15819525963421     -2.26451638392989
  H   4.00399258574548      0.57205992167894     -1.53862177134043
  H   2.48382438443898      1.48442802432806     -1.65075681791387
  H   1.41230618533580     -0.04790456058200     -0.01591079435945
  H   3.88777346734298     -1.59576335086554     -0.18339685469125
  H   2.37345403357494     -2.07013276829279     -0.59952233886330
  H   1.86146631797431      2.35469942903642      1.34399837746362
  H   2.90064129744774      2.51129473959672      0.06900687878044
  H   2.84465626270260      0.85436781318303      3.21926345486741
  H   2.80365616974281     -0.80331671617504      2.59193130233539
  H   0.73792052433150     -1.80976234172771      1.63784412603095
  H   -1.48788976258408     -2.54162863759385      0.84652435076833
  H   -2.86524486710551     -1.83007055012029      1.46416314408951
  H   -1.83362454678656      1.88435736354023      3.55247641272794
