25
Coordinates from ORCA-job 25397optt
  C   3.00988467311607     -1.04962168661700     -0.93828779908628
  C   2.47810718275849     -0.18083495430284      0.17652130793886
  O   3.01369448944271     -0.68844153872060      1.40793897605008
  C   2.88064813289264      1.29911086947058      0.05237165496736
  C   2.54432790756440      2.00581122963348     -1.22774845444163
  C   1.41646501815126      2.79164544912727     -1.38289008670891
  Cl  0.06183550666701      2.65107079493619     -0.29635029675710
  N   1.21871196508036      3.46547710180164     -2.58884919157260
  C   0.46544852023720      4.60954667348136     -2.69366924235883
  O   -0.05266107843065      5.19603316242142     -1.76383976086565
  C   1.99971268701686      3.05474066146080     -3.78698003522805
  O   1.58141138288691      3.45049469515786     -4.86387448894311
  N   3.10299928588105      2.34326103469256     -3.57091082552805
  C   3.38781417376958      1.90652784415624     -2.33026507280174
  C   0.96820157390425     -0.34702998349725      0.32822343692439
  O   0.27019197425487     -1.00908662555584     -0.38435943522652
  H   4.09050300022423     -0.92684433587586     -1.01329939221458
  H   2.55242403341070     -0.76615186479137     -1.88420196678230
  H   2.77586729571006     -2.09331590601296     -0.73046517392255
  H   2.98216447272456      0.01520841137872      2.06513075926476
  H   3.96761086379913      1.31172795201879      0.18252915503439
  H   2.44336554179879      1.83858604965977      0.90092524179158
  H   0.39503947754589      4.93413143503294     -3.73551859321658
  H   4.34689454454002      1.40911273052164     -2.20912459731647
  H   0.55933737505354      0.15084080042243      1.23099388099955
