17
Coordinates from ORCA-job 25395optt
  Cl  1.63571100523261     -1.03855076746401     -0.98921227364502
  C   3.18226285289910     -0.39878985110944     -0.54696951388218
  C   3.35975052167014      0.85746352036740     -0.14916428925282
  C   4.71618874250050      1.31525862932704      0.15835898980006
  O   4.90823426077319      2.46986449526610      0.51353749863250
  C   5.79247553414724      0.31775161683438     -0.00224127427953
  N   7.02990855083356      0.80930524835489      0.16657752703046
  C   8.16220603082476      0.11140960652107      0.08242578748989
  C   8.42775808524585     -1.22438017397040     -0.06851609887141
  C   7.48502241809227     -2.33629609439364     -0.15846594376209
  O   7.90152779317794     -3.48105892945691     -0.05922409736056
  N   6.13405415410802     -2.13908092732340     -0.39874217656770
  C   5.46937456814749     -1.03799253705381     -0.32884980216248
  O   4.12894092518910     -1.31522093756114     -0.65869592772843
  H   2.53687009511003      1.54951795796925     -0.06924687493991
  H   9.04488513777063      0.74386230911886      0.17849892120287
  H   9.46482932427695     -1.53506316542622     -0.05607045170364
