24
Coordinates from ORCA-job 2539optt
  Br  0.94482432509156      0.06909354191830      0.24456092465757
  C   2.84180162589034      0.02383971134288      0.17126339157282
  C   3.51893564445993      1.18816010601037      0.20165156484573
  C   3.08553487445114      2.62223323566745      0.29108614298929
  C   4.27423327437789      3.34248679606381     -0.36784262508049
  C   5.41129048224178      2.54700530571009      0.28776347446112
  N   4.91168740509752      1.19310862887911      0.18914856828792
  C   5.71677723329384      0.02998632605295      0.06528844714657
  O   6.94154363436030      0.17630718160130      0.00766502222346
  C   4.97288293641229     -1.16850717769878      0.01143085883762
  C   3.54645619137513     -1.21359757385841      0.08358907964684
  C   2.86725497925472     -2.44453564968171      0.04510244737713
  N   2.33832820449078     -3.47539810206590      0.00419991073905
  C   5.48487305766403      2.98108915680093      1.75112839019486
  O   6.49376506206414      3.24977903956982      2.33253770126282
  O   4.30348225133004      3.05153998016547      2.41190355712306
  C   3.03008214957310      3.07050143112519      1.74695406126868
  H   2.11969475021479      2.80747797837833     -0.17662091327298
  H   4.30819015536168      4.40927500954094     -0.13951482636623
  H   4.28563845424303      3.19443438283651     -1.44692496900078
  H   6.40077599981976      2.62968842233707     -0.15153601483203
  H   5.53360943260982     -2.08535745745102     -0.08665251175317
  H   2.66027270029116      4.09906286414150      1.80946676809899
  H   2.37406517603114      2.42032686261378      2.32435154957213
