28
Coordinates from ORCA-job 25402optt
  C   1.02997852210330     -0.46950330011931      1.28101814119895
  C   2.52329616591359     -0.61871948561160      1.16109238461492
  N   2.97909049543988     -1.91484611097551      1.01824825999104
  N   3.24231892270068      0.43945402021894      1.12547814956890
  C   4.63735865283753      0.47265381715089      0.95287741836529
  C   5.19214671925195      1.57303159329560      0.19043539969604
  C   4.46852531042046      2.43647474797676     -0.82156839336701
  C   2.96184688843160      2.29511769365236     -0.99369938486822
  O   2.22293623952311      2.70572417827019      0.13331962118671
  C   6.60256299916579      1.72902542558350      0.27385317025495
  Cl  7.41366280607369      3.10338295488948     -0.47828697441006
  C   7.41075022838437      0.84962458093039      0.91061568147328
  O   8.75754750927859      0.95710783883399      1.09729782280731
  N   6.87064322438192     -0.29071260839413      1.45666534264424
  C   5.46697121679800     -0.41961422428943      1.65181894451603
  O   5.12761337306085     -1.32029718951034      2.46711967961001
  H   0.52715014087768     -1.07545470872938      0.52149135202541
  H   0.74543696606724      0.57201475903099      1.14952408613838
  H   0.68567990198125     -0.81477821619814      2.26017692455600
  H   2.28391159407943     -2.60976451105355      1.24493988367113
  H   3.87307313720532     -2.05817499204391      1.51083662512397
  H   4.91317039303435      2.26976561743485     -1.81673669570108
  H   4.66011475644110      3.49199299011092     -0.59556005155690
  H   2.71076827771032      1.26211472530489     -1.26491124517241
  H   2.65820318629441      2.93787837934395     -1.82502530150871
  H   2.46431383955566      2.01919023483243      0.80050985262376
  H   9.03972037779088      1.77011205153913      0.66020952920325
  H   7.41320815519691     -0.76180026147398      2.16525977731478
