25
Coordinates from ORCA-job 25413optt
  Cl  -2.80464723052769     -2.35310288465503     -0.03388830969668
  C   -1.75525428303976     -0.98461490778671      0.27390716863982
  N   -2.38524267292215      0.19959237972942      0.46131046344656
  N   -1.51913947558762      1.25287746471583      0.70311085600252
  C   -0.23913479068910      1.02853269113639      0.72422421361753
  N   0.44149153871463     -0.13315727720860      0.53928783182834
  C   -0.40401198134346     -1.16330370229222      0.31000682087977
  O   0.11902546323265     -2.41140848548087      0.11288738012486
  C   1.52249931806160     -2.53997457566776      0.17683040740539
  C   1.84349404369870     -4.00292723040279     -0.08688331337598
  C   1.27374692628482     -4.51926451373785     -1.42829280912592
  C   -0.09783283335978     -5.14534013017298     -1.10432817240654
  C   0.02283538117216     -5.55473419752463      0.34010837432491
  O   1.22193417825504     -6.27729695262247      0.63521152895196
  C   1.17092083772948     -4.88506264622687      0.94117150017806
  H   0.37625795426197      1.90398536246858      0.92137551914644
  H   1.88992092755321     -2.22262319131356      1.15773689393410
  H   1.99962445194320     -1.89709320193063     -0.56802340924044
  H   2.93036151459449     -4.11974319934650     -0.05055402674656
  H   1.93957754392188     -5.27790847935315     -1.83786076207823
  H   1.18715130953390     -3.71226470430706     -2.15604539708963
  H   -0.33298444118227     -5.99017255177877     -1.75496794525051
  H   -0.89335950288384     -4.40307855248314     -1.18120987516789
  H   -0.84618261695301     -5.84066372854536      0.91979420765404
  H   1.21394843953096     -4.63325278521325      1.99509085404407
