27
Coordinates from ORCA-job 25419optt
  C   3.45999820075113     -1.45673170776692      0.13658244859391
  C   2.63139749041268     -0.17216309267629      0.02904580624018
  N   1.18474996136758     -0.39919492046483      0.03756721303339
  C   2.96967968252596      0.86577741859616      1.09650374341582
  C   4.27269285165005      1.58697086414608      0.95639071894406
  C   2.97899669623447      2.29497850955621      0.65552578017103
  N   2.45360198317231      0.68013533321379      2.43713419430832
  C   2.63492008213984     -0.59382063244069      3.03818435134561
  C   3.76477617511268     -0.96226133226396      3.67918423396953
  Cl  5.14516168857005      0.02780748320942      3.97061575007966
  O   3.91308694314811     -2.21399410603811      4.17831182705855
  C   2.76463534842087     -3.04905651162928      4.18028696157953
  N   2.88487190428615     -4.16861145608641      4.79139166389625
  N   1.64579470466119     -2.65072120663944      3.53884664367127
  N   1.58789349237272     -1.45390134052690      2.94293042823572
  H   3.30710436954806     -2.06578968351085     -0.75839221973455
  H   3.16254848383988     -2.05042444954164      1.00047765990182
  H   4.52609656176058     -1.23206871042871      0.22079078587681
  H   2.87979450684190      0.29711841653262     -0.92989943120734
  H   0.94242356703822     -0.86747179085555      0.91445855720843
  H   0.94084066509716     -1.04453116229582     -0.70573168084445
  H   4.90876518075212      1.31373190615654      0.12368618530672
  H   4.78577951855462      1.85051299480955      1.86789234487562
  H   2.72456137438395      2.50076743388357     -0.37516001242155
  H   2.63957513019270      3.02581806115343      1.37563742959411
  H   1.45176127468238      0.84625163357918      2.41494019886750
  H   3.82049216248258     -4.22512795167113      5.18279841803398
