32
Coordinates from ORCA-job 25414optt
  C   5.74945939274503      1.22467875266491      1.44883814935827
  C   4.64991566832083      0.56126948128284      0.63614049901456
  O   4.13572288979422      1.44308872443765     -0.35347814776833
  C   5.14538378179997     -0.76735312768152      0.06209193389902
  O   5.89392615122629     -1.48290503585262      0.75172918164534
  N   4.66635573303071     -1.07599577266237     -1.15189169911805
  C   4.96370629488110     -2.10168259564189     -2.06930884646216
  N   4.91816265928064     -1.61949519676506     -3.36490641963188
  C   5.10011463286151     -2.51667854047254     -4.31102174585399
  Cl  5.04856090601238     -1.87994430197698     -5.96878601389600
  C   5.32442824558258     -3.85536498877863     -4.14494498332275
  C   5.32556515181042     -4.35093645014422     -2.80199556422133
  C   5.11695264579733     -3.46068212799002     -1.74824899885364
  N   4.97759281419883     -3.89386550494081     -0.42526094584351
  C   5.62300551298218     -5.12463965350730     -0.00927779654045
  C   7.14758356078794     -5.07839135052715     -0.07022874758878
  N   7.65168699968325     -4.10528905836483      0.90009989261594
  H   5.37523080122095      2.15137796024988      1.88443355427147
  H   6.60146645411118      1.45256482876120      0.80263465121418
  H   6.09574850839029      0.55446145606657      2.23226902991528
  H   3.79673370417167      0.34935892894915      1.28902292441949
  H   4.85965774508245      1.67324612409437     -0.94860439712454
  H   4.12627404320608     -0.34042449809225     -1.59039075176237
  H   5.47235879710132     -4.50441220984699     -4.99447399902013
  H   5.45495871872201     -5.40665606470513     -2.61980266490376
  H   5.15097884104649     -3.14532114077584      0.23637552114146
  H   5.24982969510346     -5.95664560654157     -0.60981607742428
  H   5.32606426195140     -5.31260200014113      1.02535035122040
  H   7.44490773958018     -4.85790982598647     -1.10218676153366
  H   7.54082242210444     -6.06693222223453      0.18816796750201
  H   7.20579787496550     -3.20118622959555      0.74668585118714
  H   8.64404735244722     -3.95773275328109      0.76278505346508
