28
Coordinates from ORCA-job 25410optt
  C   1.78028349550835     -1.84816998969856      1.09953929689664
  C   2.98229627531041     -1.12244241753830      0.50675316391125
  C   3.74484899145493     -0.35418022255662      1.56440165403167
  O   4.85389983114876      0.29708227875747      0.94971981854373
  C   5.67096339339886      0.96545491324847      1.84422349459898
  C   5.20006238161405      2.01606032376813      2.63505309312426
  O   4.14217866577694      2.82650128121833      2.23464501280963
  C   4.03962603726051      3.13127020446904      0.92634742157526
  N   3.03965294470553      3.70876818294783      0.42077648648130
  C   5.80513856881767      2.19289713243459      3.87329524844854
  C   6.75884850774309      1.16202845642248      4.14152165458067
  S   6.86153544122402      0.04672026326937      2.78137958981406
  N   7.52131349565335      1.06672409389757      5.19596950622822
  C   7.38242516888875      2.04604426194085      6.14141834048630
  C   6.48648920044787      3.08540821783321      5.97137234912454
  Cl  6.38790086764270      4.30061890464956      7.23100664900362
  C   5.67379588126234      3.21482925859773      4.85919597972141
  H   1.23258771721034     -2.40235800081841      0.33601609313227
  H   1.08730180841115     -1.14210644866668      1.56164570654974
  H   2.09257533754638     -2.55676989383322      1.86936658290020
  H   2.66113236311618     -0.42362481825517     -0.26911432691775
  H   3.66190074760983     -1.83531634960220      0.03406978613884
  H   4.11282200474799     -1.02659665507294      2.34869980178108
  H   3.09906290651137      0.39472285725086      2.03942053523385
  H   4.90336579064565      2.84484385231528      0.33092671044778
  H   2.33774065824487      3.87657623791491      1.14344602053862
  H   8.00620812259820      1.98672778780415      7.02205870245060
  H   4.98204339549975      4.03628628730227      4.74784562836462
