25
Coordinates from ORCA-job 25428optt
  C   3.08871560094101     -1.37304353038444      0.38455498930641
  C   2.42522544907589     -0.03358423136146      0.08468379167957
  N   2.61918275842482      0.94467618305842      1.18258591717821
  C   2.90812417671249      0.58777383262491     -1.18945300065232
  C   2.71270652748935      1.92719512837114     -1.51463024015972
  O   2.13572126629827      2.90462563559830     -0.77924581117635
  N   3.18254488000200      2.17263472187922     -2.74832439994962
  N   3.19247691585230      3.41943469864845     -3.34430855666852
  C   3.69607594920988      3.38428300593333     -4.57529277000120
  C   4.21044309814226      2.28179402920656     -5.25322754103777
  C   4.30986495886612      1.05171190120422     -4.58188666046734
  Cl  4.25786989844090     -0.46726677200239     -5.55404196955258
  C   3.71651139604712      0.98521064897785     -3.28070788418800
  C   3.54489791906982      0.01247242841015     -2.32367506384721
  O   3.91751558898559     -1.30990672948731     -2.43433073610942
  H   2.72691156024660     -1.76559472089019      1.33926051738309
  H   4.17245636829009     -1.24759728308673      0.43894182648290
  H   2.88496802904987     -2.09686823546077     -0.40288365335442
  H   1.33931153335347     -0.19572714079554      0.03811881325714
  H   3.61654383865054      1.11984672536941      1.27778620534159
  H   2.29360105852718      0.55212060106682      2.06016569491946
  H   2.07897244643165      2.53415746996434      0.11967719892713
  H   3.71222836439051      4.35614462031602     -5.05831763251957
  H   4.58103801022040      2.39437607158444     -6.26311420766311
  H   4.17309240728180     -1.45086905874478     -3.35533482712829
