26
Coordinates from ORCA-job 25429optt
  C   1.78496157404051     -0.66335652393675     -0.09886483142293
  C   2.65952535828801      0.52431400927595      0.18319754765079
  N   3.02053735549906      0.75560604536695      1.57228287154343
  C   4.49006389909421      0.77246640766455      1.63250873904437
  C   4.88501841768301      1.44836175234433      0.30475395050285
  C   3.82915717159799      0.91542846682562     -0.66029276187139
  C   2.56575687312606      1.73211804787656     -0.72705722520095
  C   2.57338219299498      3.13920707941771     -0.26643934692603
  N   1.46477626274993      3.81361465534412     -0.48164976525765
  C   1.48508113142096      5.10591185668212     -0.11042316394178
  Cl  0.01553209069639      6.02801883451945     -0.36733589584821
  C   2.60244056823208      5.71573037797849      0.42647424993718
  N   3.73288690355376      5.06583072087523      0.63367565739560
  C   3.74322886231945      3.72719552516959      0.29632414534264
  C   4.93412183988320      2.96360372278554      0.51810837767622
  O   5.99391542282297      3.42487051387314      0.97224021761483
  H   2.24934440635970     -1.58373670695352      0.26831395373254
  H   1.61264532849184     -0.76871190519962     -1.17043697389845
  H   0.81145342002574     -0.55047477263994      0.38620475411838
  H   2.61526846418471      0.04946736809830      2.17115812342149
  H   4.90789771792565     -0.24516078441190      1.67371809402995
  H   4.84856065385584      1.33957130460439      2.49167444392869
  H   5.88925840267262      1.14944685831550      0.00575934158972
  H   4.13496298764475      0.33404238951430     -1.52108309221589
  H   1.92719723379691      1.58249767281845     -1.58953559579998
  H   2.56902546103963      6.77013708379139      0.68772418485458
