34
Coordinates from ORCA-job 25431optt
  C   1.72180300698767      0.73474964072974     -0.41525225778885
  C   2.82085669888784     -0.30800543566870     -0.23385845185824
  N   4.05158680029779      0.14308183332451     -0.91416280584002
  C   3.09629382784089     -0.70493049501697      1.20736982038004
  C   3.22715409659359      0.18813807984536      2.33416163103219
  N   3.24947400496164     -0.36825936420158      3.60943157204725
  C   3.28205880988876     -1.63869372299543      3.74866716628740
  Cl  3.27085218322601     -2.22586516617726      5.44910649726071
  C   3.28548565241910     -2.61800246495282      2.74533180460910
  C   3.28578577799956     -4.08277724472592      2.98484862304575
  O   1.98885735003292     -4.64160264356822      3.27594153546375
  C   3.12724129683905     -2.05597833315360      1.44965914299046
  C   3.39304341652610      1.63247814723221      2.26706673391118
  N   3.90400879581287      2.30524691448503      1.28442108530549
  N   3.01300536996314      2.35980448587155      3.41758852973689
  C   3.32609883890617      3.76854135232757      3.38721191424649
  C   1.69214954120983      2.10707425330513      3.95413698543978
  H   1.48920885171731      0.84310850015517     -1.47925750565632
  H   2.02090866422016      1.70472969458717     -0.02341612253321
  H   0.81740306207510      0.40502942848183      0.09847091383692
  H   2.45398707138121     -1.22678295054668     -0.70833195529109
  H   4.76129336094923     -0.57594537353571     -0.82973103967138
  H   3.87047400590156      0.28591019499990     -1.90231651711749
  H   3.96760719995610     -4.34318745629317      3.79979260309676
  H   3.61754161868311     -4.60423773398276      2.08484278404035
  H   1.61287291839898     -4.08718044014334      3.96839103934332
  H   2.98765411190342     -2.74134217894320      0.61764378680709
  H   4.24714655037920      1.67340507594156      0.56602495030773
  H   4.35799216906222      3.91093524353733      3.07714257316986
  H   3.17886343180040      4.17790334349283      4.38999841926802
  H   2.69343268288036      4.32680142040953      2.68075263663183
  H   1.51482043487674      1.04037274790389      4.04215095248766
  H   0.90712931557777      2.55596272209340      3.32262184555542
  H   1.61690908184404      2.54951792518165      4.95055110945508
