24
Coordinates from ORCA-job 2544optt
  Br  1.39163616491181     -0.26480289670688     -2.61457728727680
  C   1.00648486421813      1.40819395450022     -1.72510896119068
  C   2.01195193336456      1.71561113796060     -0.72547673973307
  C   2.00051158724018      3.07187886971004     -0.10118577568138
  C   2.39738420342303      3.43948274985079      1.33402341114681
  C   2.62371116877084      4.84668662492125      0.70840960732873
  N   2.86014967666709      4.19327797295391     -0.63143747677043
  C   1.31297847388789      5.51166143523672      0.59394052754345
  C   0.16151143920049      5.51782960955353      0.24309993620798
  C   -1.10761920432233      5.02315523785028     -0.32397848796538
  O   -0.90228891340417      3.63661855088514     -0.58191861345469
  C   -0.93966035545579      3.16221238826758     -1.89041129552589
  S   -2.07713272536421      3.81454794309390     -2.97064229175175
  C   2.98946422614013      0.91183346442189     -0.33558667533756
  O   3.87808552546244      0.28900358899356      0.09070726365365
  C   -0.09980123367507      2.08867592063933     -2.24068757926219
  H   0.98295782314841      3.39554124689675     -0.23995607305831
  H   3.35308216334215      2.99472906163502      1.62478157665612
  H   1.65505271935448      3.32961330639995      2.12339917357934
  H   3.43569071908499      5.46784171000596      1.07963238844810
  H   3.82315897555720      3.85379778171893     -0.61958982375962
  H   -1.38235074720995      5.53887887052252     -1.24451839569781
  H   -1.92977272738231      5.12283505047683      0.38593182315090
  H   -0.43118575696003      1.67089642021210     -3.18285023124949
