29
Coordinates from ORCA-job 25447optt
  C   3.89522141641031     -1.09204517132985      1.78725550624602
  C   3.42990546023348     -0.17128486527015      0.69265121170471
  C   2.80455817228140      1.14297695354683      0.98276170594761
  N   4.16686948097514      1.05913289658646      0.49490421599024
  C   4.32488181129033      1.49805816814052     -0.91789867756329
  C   4.20285411530005      2.96783593551235     -1.09463085546122
  N   2.97777977845314      3.45776174763120     -1.35878159126549
  C   2.82582308727862      4.74630572466157     -1.29733050377791
  Cl  1.20575742364900      5.33802700529654     -1.73291433972831
  C   3.79709182236102      5.70707346049073     -0.97909326931332
  C   3.55226996113355      7.18283233437177     -0.97091877118701
  C   5.07567246263219      5.20994055588068     -0.59055314405565
  O   6.04259972896538      5.91213085039156     -0.26559275832790
  N   5.20655305983226      3.80541827666288     -0.56052861997835
  C   6.51657641211526      3.24801405180439     -0.33399144590504
  H   3.10007123289891     -1.77791897754444      2.08962981860624
  H   4.19782148282656     -0.50647411416485      2.65584943833620
  H   4.75367057566547     -1.68471508183925      1.46333696351860
  H   3.08390508722831     -0.66318772317150     -0.21487469065550
  H   2.69292319322081      1.46370761046131      2.01267036011248
  H   2.06628071268782      1.53256879877481      0.28989129887329
  H   3.53764658555967      1.05190315924553     -1.53788671384817
  H   5.29108688621491      1.10965713820159     -1.24824437875748
  H   3.22781818566228      7.55516252513391     -1.94746924872024
  H   4.47890074574431      7.68501018974837     -0.69630258638363
  H   2.77646207319976      7.47017505557224     -0.25260074473884
  H   7.13858366398012      4.02166051123252      0.10539565708020
  H   6.97358090769287      2.91889034762974     -1.27864979327985
  H   6.44983447450677      2.39038263634233      0.33791595653164
