29
Coordinates from ORCA-job 25445optt
  C   1.88366470608931      2.75111485242983      0.23163151979049
  C   2.07409393224871      1.30472050958839     -0.20069810259371
  O   2.28549675543233      0.46370465368446      0.95883133558552
  C   3.66757441350536      0.09301576686352      1.04634848668730
  C   3.92724287350053     -1.40927449919698      1.27631157958269
  N   5.35935534749822     -1.70998552112023      1.07727724986480
  C   5.73068646484231     -3.02122205994881      1.54847175528091
  C   5.82712577756776     -1.40534944706956     -0.22837216135998
  C   6.69043173973235     -2.10037781159411     -1.05843139430918
  S   6.74582218222816     -1.33889389110791     -2.65894840690118
  C   5.52373650558955     -0.15915236813262     -2.22768315521458
  C   5.25878273320584     -0.29467210731202     -0.85089316258704
  C   4.20028563314203      0.43879268362447     -0.28368949297594
  C   3.29168909305710      1.08298926455877     -1.07141630879584
  C   3.52985176623472      1.27691377753121     -2.43663325074797
  C   4.71368991605282      0.66177622370603     -2.98348154306449
  Cl  5.00519789152257      0.80906933914920     -4.69940931453609
  H   1.02966495558991      2.84953128005735      0.90413133205562
  H   1.72322868656934      3.38110456786543     -0.64576121140737
  H   2.78334441044342      3.09818187394800      0.74302642177660
  H   1.16679610140756      0.94366019194031     -0.69442444050176
  H   4.13193072331916      0.64323172487678      1.87758711995663
  H   3.29813613188274     -1.97949244113140      0.57599881132093
  H   3.66717520728968     -1.70169688299115      2.29593550817642
  H   5.43207124022063     -3.13446402934878      2.59225986451355
  H   6.81359525418762     -3.13687023214075      1.48529042868414
  H   5.26747708085824     -3.82879285886741      0.95922396324498
  H   7.33858548325869     -2.93417561091165     -0.85047935437808
  H   2.84526699352323      1.79361305104965     -3.09400407714736
