26
Coordinates from ORCA-job 25455optt
  C   0.70034947624618      0.29262922530892     -0.95173075621294
  C   1.99516593441660     -0.13865331791722     -0.26186915518625
  C   2.74205399771884     -1.18647668191181     -1.08870715821190
  O   3.49557822172883     -2.05419201792635     -0.22347614089565
  C   4.76666839711533     -2.14750237142959     -0.69119028694597
  N   5.60434250763457     -2.99215590882471     -0.16078811527482
  C   6.85494126907066     -2.97512709920428     -0.71858222920675
  C   7.20882683151641     -2.18639164095039     -1.79304615724238
  C   6.25614600114708     -1.32683029193213     -2.34544440540910
  Cl  6.64034779723807     -0.35210608126789     -3.73805474996151
  C   4.99389625669206     -1.26098029475536     -1.75679155203575
  C   3.78006457453132     -0.41625581490844     -1.94839007144727
  C   3.94271075231211      0.86337840087981     -1.18143313391019
  C   3.00909863805181      0.98903901166513     -0.17987090269515
  C   2.91165204483561      1.99006039326689      0.79460006529079
  C   2.77784177164954      2.85101599673541      1.64182642265713
  H   -0.01983388053619     -0.52971435865678     -1.00273039714557
  H   0.91321453135625      0.63113116535890     -1.96907690165318
  H   0.24382048027685      1.12395648366052     -0.41317003471183
  H   1.76351045426861     -0.54800226553618      0.72458894954017
  H   2.07163160856211     -1.81573042478573     -1.68234813227952
  H   7.57845417901186     -3.65139321459527     -0.28004500338079
  H   8.20572804990554     -2.24057113222165     -2.20993672797348
  H   3.46666771573757     -0.30459294751062     -2.99627164354586
  H   4.76071439015753      1.54524777397495     -1.36554684807385
  H   2.67240799935475      3.60821741348388      2.37848506591166
