33
Coordinates from ORCA-job 25451opt
  C   2.58808535395479     -0.66153749708833      4.78889390779544
  C   3.27615841644873     -1.17799616409595      3.53730616539600
  C   2.34867466661650     -1.31818773134305      2.33515108351234
  O   3.16682264137413     -1.27893084035024      1.18437587665245
  C   4.41609545041535     -0.61589065226864      1.48471846323788
  C   4.33922678528197     -0.24052773976276      2.96732781845789
  C   5.58363941306307     -1.52560315148929      1.05510593937684
  N   5.44338803830963     -1.66821184496205     -0.39853226272942
  C   5.60302138303913     -2.88046618037021      1.81353194740846
  N   6.44091557647756     -2.63377098307543      2.98509739597925
  C   7.34951973998830     -1.61864301934260      2.59504196140279
  N   8.43512627216290     -1.36393974287366      3.33835785893069
  C   9.11960250302289     -0.28421371035100      2.84703428041107
  Cl  10.58418731575103      0.11122785655164      3.75287970186012
  C   8.76344679647892      0.51809433829688      1.79596003599821
  C   7.58673559269986      0.23836673549412      1.06212246068532
  C   6.90531714268279     -0.95250868772798      1.47569245007538
  H   1.80333969574139     -1.34190154691247      5.12887134426727
  H   2.13178891696213      0.31380267495230      4.59903551221077
  H   3.30572587444872     -0.54336546101724      5.60198607565473
  H   3.74458042929545     -2.14117473765128      3.75221656735383
  H   1.63447486929302     -0.48024174153063      2.32124976356302
  H   1.78005640577458     -2.25188451866220      2.32720945287900
  H   4.48425071785662      0.27605557428773      0.85831105439707
  H   3.99363285750132      0.79323889374939      3.06237778403159
  H   5.30186241811506     -0.32512926615952      3.46646236698928
  H   4.56896323044868     -2.13850840809985     -0.61250157341707
  H   6.20930404217266     -2.23142400491425     -0.75142840371731
  H   6.05776546764364     -3.62149729657837      1.14276772065266
  H   4.60223448661091     -3.22746142703177      2.07958116839989
  H   6.91425708317438     -3.44273155015423      3.36711610188758
  H   9.39363303304082      1.36107346732000      1.54347899798503
  H   7.31816738415282      0.78688836316096      0.17120098241187
