26
Coordinates from ORCA-job 25458optt
  Cl  1.13832835614980     -0.15047150337075     -1.10272524180006
  C   2.67288784639367     -0.02595186488569     -0.28437764235848
  C   3.00743402234459      1.10433698350098      0.35400969358068
  N   4.27168505366853      1.25354353947793      0.91273196317438
  N   5.12047532847753      0.13803603547071      1.11853800983279
  C   4.76794252945184     -0.94835389911487      0.40769201372692
  C   3.60467191790297     -1.17070066381353     -0.35491940399975
  N   3.25892511488831     -2.24296269892226     -1.05498252953887
  C   2.15545093818794      2.34663853057823      0.36273006776350
  C   2.33238163372360      3.09363368555572     -0.97950386034793
  O   2.00569466380127      4.48501594225207     -0.88707356633717
  C   2.29995821723302      5.03168498591758      0.38136079420702
  C   3.45680565116343      4.28091152027003      1.05989385152227
  N   2.45642965790611      3.24730468650704      1.50438684905411
  C   1.44019088708749      4.34649587728684      1.44923850650497
  H   4.24518775531467      1.81342502752946      1.75388986881226
  H   5.46956972320283     -1.77393389236270      0.49957683747396
  H   4.01679806809641     -2.92177390616898     -0.98557222933106
  H   1.11559006883866      2.04095844265169      0.47793630072887
  H   1.68790245381796      2.65924033695078     -1.74025354034105
  H   3.36952281119440      2.98804213075306     -1.30702092367518
  H   2.31089704255119      6.11720689016880      0.27927182017185
  H   3.83513108617956      4.81213108298304      1.93351461178964
  H   4.28513617144476      3.91023825532160      0.46013971619673
  H   1.41750670780741      4.88115468740054      2.40067329544775
  H   0.43649629317201      4.03814978806268      1.15584473774187
