28
Coordinates from ORCA-job 25464optt
  C   1.14300457495296     -0.26274953754432      0.09660477796651
  C   2.65385535839563     -0.06763357970664      0.08425952732708
  C   3.21616367553578     -0.02505372035204     -1.34366040457244
  N   2.83898188413877     -1.14942410870754     -2.15565491424572
  N   1.60296843184022     -0.90689305058951     -2.87216080445804
  N   0.84432498328377     -1.95764279354739     -3.15659780195025
  C   1.20622302105202     -3.23729576522605     -2.91168134039037
  O   0.48019291916951     -4.20752829053912     -3.16878438555760
  C   2.54744033771992     -3.48039912422395     -2.31932685431064
  C   3.25171369660821     -2.41369638896235     -1.93457973218203
  Cl  4.83686996559437     -2.59747020094929     -1.17437795889854
  C   3.03229705366467      1.22506328593019      0.82858820541462
  C   4.52052697346916      1.37507975967263      0.98411221430620
  O   5.18406745666042      0.65374882271896      1.69230835466364
  C   5.21198416839280      2.47767130405543      0.20911540555773
  O   6.59112287872807      2.46711117420892      0.41851977143132
  H   0.86350856232321     -1.18998775717510     -0.40349347805867
  H   0.64400300009461      0.54824871804446     -0.43854411231678
  H   0.77067140704715     -0.29044362876842      1.12341482420055
  H   3.13113837455725     -0.89983987911110      0.61074818027365
  H   4.30651698250914      0.05028438684186     -1.31016623529361
  H   2.82142055415046      0.85109904257618     -1.86609295669809
  H   2.91754134342687     -4.48818664199702     -2.22819088718120
  H   2.59849507502153      1.20067963014973      1.83086109176431
  H   2.61945973107238      2.08715945831055      0.29518113901600
  H   4.77472544809585      3.43278644016110      0.52865305974362
  H   4.96605059239908      2.35198988445413     -0.85273457813241
  H   6.75873155009594      1.71232256027575      1.00467989258122
