29
Coordinates from ORCA-job 25473optt
  C   2.80110026771445      0.77853397756127      1.63659247347566
  C   2.69526390668993      0.24028980927448      0.21916927617967
  O   1.34897113432638     -0.03705784862983     -0.13057735305466
  C   3.30853518234232      1.20143453647441     -0.82846217991698
  N   4.70952663309115      1.50833339744632     -0.51766370734776
  C   5.73701633352948      0.64016175999052     -0.68463274844126
  N   5.39574215668603     -0.60575209544520     -1.22695449763318
  O   6.90180428530808      0.85194625667018     -0.37481350841650
  C   4.83677535431762      2.87417219219589     -0.00307979725200
  N   5.88531712969832      3.40329009653086      0.52879511469979
  C   3.56836533600726      3.47071024405682     -0.21875181103038
  C   3.14657091264332      4.80886236536049      0.04121427793167
  C   1.87004426678590      5.14442323889128     -0.33629524845195
  Cl  1.32062246963995      6.78993651155512     -0.04340281008955
  C   0.96601824789744      4.27198262619407     -0.95221486690912
  C   1.39321878973157      2.93167397563335     -1.17232674103724
  C   2.65593610950546      2.55943663426495     -0.79371492984332
  H   2.37445007797134      0.05435201092441      2.33112451912252
  H   2.25464956173610      1.72039241932329      1.72306839152582
  H   3.84081324203711      0.96599803610613      1.90830967501992
  H   3.21666926090616     -0.71582144277925      0.15412618655918
  H   0.87603727052166      0.80518802684340     -0.08282969573084
  H   3.20274705149180      0.73933532206372     -1.81589895562202
  H   4.60992124893831     -0.65038583356873     -1.85588466406406
  H   6.21976306336278     -1.08032400607148     -1.56060621667435
  H   6.65386171770464      2.74142023994253      0.52462280697179
  H   3.81491519030669      5.52276364812555      0.49987862072753
  H   -0.01699323375738      4.61204536261452     -1.23887498628418
  H   0.72933703286607      2.23265853845090     -1.67091662441416
