26
Coordinates from ORCA-job 2548optt
  Br  0.49319070533955     -0.29623665990413      0.11492595601913
  C   3.08400661274642     -0.03281595743409     -0.12490481341899
  C   3.66352936072284      1.19204245090807      0.02445267202617
  C   3.06881433712469      2.50620700069706      0.08224816733764
  C   3.82076956232134      3.66666835538113      0.09551257981104
  C   5.31565896555768      3.64177207311747     -0.02683749144960
  N   5.81924081111279      2.33590510301009      0.38240793333100
  C   7.21694910995275      1.99446435170880      0.11965118314013
  C   7.28435947255716      0.46465921324844      0.33128889060858
  C   5.84923191489026      0.06905635391495      0.10172470321893
  C   5.07286809446297      1.19648816738947      0.15092359058561
  C   5.25081229953946     -1.21419231336502     -0.02165808338039
  O   5.80377355963807     -2.31207459679825     -0.04024860814100
  N   3.83796022583868     -1.14117308670368     -0.13855980183196
  C   2.86362455951174      4.69270908634447      0.18223582231744
  N   1.62962649628048      4.20673511758547      0.22120224317959
  N   1.78119879738986      2.87579254612041      0.16102291560462
  H   5.77976813081808      4.40832760623162      0.60035096400854
  H   5.62850038398512      3.84822440038627     -1.06556984315318
  H   7.88504596549717      2.55658954531157      0.77387539106627
  H   7.46298221147638      2.24794784297934     -0.92304294341061
  H   7.60143697921178      0.22589796950615      1.35144508469018
  H   7.98574957446284     -0.01493236426973     -0.35094496043029
  H   3.37683615169853     -2.03745491528816     -0.22876110783446
  H   3.01383435310863      5.76124660618042      0.21856934399105
  H   0.99323136475448      2.23514610374178      0.18369021211455
