29
Coordinates from ORCA-job 25487optt
  C   2.81545957421825     -0.55046807499750      1.18374511689107
  C   2.49541877730465     -0.29682886309495     -0.29398224110163
  C   1.04175717897936     -0.27432877675962     -0.47697937324000
  C   -0.15421504977245     -0.22581345915242     -0.58436858423339
  C   3.11896559971012      1.03147947284407     -0.81358006242888
  C   2.71997492192510      1.28677927964806     -2.26942426354311
  O   2.65022269487828      2.09772889721066      0.00610043586703
  C   4.63813992407436      0.96201354124505     -0.74429000363649
  N   5.17344305829069     -0.30543687776989     -0.73796448923733
  C   6.50143281683543     -0.36957567860761     -0.80734571991763
  Cl  7.19223469877245     -2.01362406240199     -0.89694319812890
  C   7.37275749966322      0.67357162314064     -0.92414309908162
  O   8.73720134843410      0.55207112709798     -1.03946158196941
  C   6.82891487053179      1.97587497435156     -1.04874525796043
  O   7.57430317999007      3.10469682199850     -0.62702978933590
  C   5.42245961904174      2.08096608457848     -0.89316030433125
  O   4.88804272842983      3.34285312245511     -0.96401402983927
  H   2.33427665863363     -1.47020113700610      1.51942978471069
  H   2.45295917433781      0.27878500840286      1.79013950733439
  H   3.89255413466358     -0.64371677806801      1.30035306966184
  H   2.91909410462553     -1.10580330767746     -0.89154133048588
  H   -1.21055956750146     -0.20209070036450     -0.69694831721008
  H   1.63452744731229      1.35387865459149     -2.38107835053682
  H   3.08877314508387      0.47464087656405     -2.89895072280277
  H   3.17547351906639      2.22287750188096     -2.59197112728803
  H   1.69927603633371      2.16657350336784     -0.14008878341247
  H   8.94615660451714     -0.38942836583732     -0.99295577055226
  H   8.42232346710055      3.04963431487526     -1.07473659838977
  H   5.64763183451982      3.93689127748479     -1.01906491580170
