24
Coordinates from ORCA-job 25488optt
  Cl  1.02583241617124      0.38824597376864     -0.03191667710602
  C   2.74676575062400      0.15895331908018      0.08150664215693
  C   3.53294639952027      1.27389798977533      0.16054910405505
  O   4.88929132293924      1.16381842389177      0.25636116206673
  C   5.44518439939161     -0.10785920268151      0.24672194435207
  N   6.74829594614162     -0.06410533705270      0.32942474984126
  C   7.45078132487486     -1.22042750777293      0.33544654318608
  C   8.83209891397604     -1.29964590508361      0.41975410663480
  C   9.27750689697709     -2.63086663766318      0.39945821049588
  N   8.36598694698441     -3.57213825002004      0.30829953468699
  S   6.86721768888598     -2.86817231292517      0.23742809220514
  N   4.69858908926597     -1.18771810223626      0.16119856299089
  C   3.33432840394466     -1.10145018258433      0.08587141402873
  C   2.61489702480974     -2.40608532122116     -0.01282404062567
  C   2.99247447865095     -3.34736194925154      1.14471838897113
  C   2.44638903637581     -2.90156211216208      2.42623698289346
  N   1.99152232556543     -2.57283783517420      3.42655341818997
  H   3.17565080341569      2.28980305737287      0.17038080491453
  H   9.45758353232746     -0.42306375340302      0.48850404238578
  H   10.32109552534932     -2.92517729190798      0.45350329811824
  H   2.91931381494748     -2.91305106734489     -0.93514390914847
  H   1.53652314015792     -2.25902174661961     -0.04574388862936
  H   4.08082684275077     -3.38602211679312      1.22475458885527
  H   2.62389797595231     -4.35815213199148      0.96095692448057
