27
Coordinates from ORCA-job 25498optt
  C   1.02709399155358      1.14980137528469      0.21358507010761
  C   2.54930771957063      1.08714612022848      0.18633049364309
  C   3.09416079347723      1.40275023995393     -1.19019663998016
  O   4.51055784470387      1.28309368711382     -1.16156664380080
  C   5.11644217680324      1.67501534426846     -2.33141187144170
  C   5.44923680672192      0.80145301605034     -3.32539715869763
  C   6.04539347852515      1.25772298547039     -4.51255194491606
  Cl  6.56294884235997      0.11917598857822     -5.71696543101517
  C   6.32183703291885      2.64176242717169     -4.64708119793548
  C   5.94190216645123      3.51944319961300     -3.59762997919145
  N   5.26293464850702      3.05474875153471     -2.46235508528546
  N   6.26019299100718      4.82394848048293     -3.76074126766854
  C   6.86010988533486      4.76906235255276     -4.95786249693181
  C   6.94454535530594      3.53630386580914     -5.56908568864518
  N   7.60671758930401      3.68550154484194     -6.78258749838988
  C   7.87075235088419      4.94633835319887     -6.82891341255262
  O   7.45634618306797      5.69830952474211     -5.75977588077390
  H   0.63651937291220      0.92761182314595      1.20734065126202
  H   0.59435217494496      0.43073131326049     -0.48486443339585
  H   0.67164596186133      2.14189076943475     -0.07167223748360
  H   2.89491904352244      0.09311513300816      0.47963252257328
  H   2.97311793096637      1.79429969884667      0.90286936396579
  H   2.81685078589582      2.41810358525970     -1.49515447071066
  H   2.69027150222832      0.70581201411420     -1.93491290042261
  H   5.23662192378284     -0.24855440663196     -3.17579077158134
  H   5.44713307529931      3.56613932142945     -1.60851215599667
  H   8.37908837208943      5.48327349123703     -7.61272893473512
