24
Coordinates from ORCA-job 25490optt
  C   0.93564663565327     -0.19396999422546      0.13694661638947
  C   2.42983719121997     -0.09986612091761      0.08439000650574
  C   3.24194956432191     -1.26734538151971      0.10594146428052
  C   4.61296088575947     -1.12221891583345      0.08418506603950
  Cl  5.60339197517125     -2.57094516052682      0.10432079674386
  N   5.31889193662177     -0.00835694280309      0.04516870208014
  N   4.49661699891124      1.10496268391843      0.03105743779421
  C   5.00287525802986      2.39517761036475     -0.00254415494605
  C   6.39496999462369      2.70734192696157     -0.04309154362089
  O   6.85591911087068      3.84779199792145     -0.08136960522406
  C   3.89679851425623      3.24410797240175      0.00973254367964
  C   2.73089223965858      2.48909139546947      0.05272858787688
  C   1.34753697493110      3.03454328865035      0.05962477940129
  O   0.68016014672493      2.92591806029126     -1.20710805254105
  C   3.11541819348102      1.11321041062581      0.05868589898331
  H   0.61046814215137     -1.16475920344167     -0.24409973665279
  H   0.45644041464564      0.58099330634758     -0.46486313300659
  H   0.54753447884879     -0.10620246976371      1.15937291390759
  H   2.80605264489686     -2.25538921275711      0.12924040928014
  H   7.06171548857310      1.83053504170497     -0.03972873859506
  H   3.96761628652285      4.32166322511209     -0.00064288552950
  H   1.38612027412709      4.08975652020833      0.34878910655808
  H   0.70988720958018      2.51337442614058      0.77644922769123
  H   1.37329944041911      2.85858553567021     -1.87118570709563
