27
Coordinates from ORCA-job 25494optt
  C   0.86558305665909      0.04173807226458      0.25330909592062
  C   2.37532596228251      0.03904384977534      0.13947200601114
  N   3.11837825342646     -0.19596458230050      1.33018583053504
  C   2.97366387024852      0.59333077250341      2.38506060581261
  N   3.55045041700217     -0.01196000522723      3.54789493578839
  C   3.33879046000745      0.49399566883764      4.82627538748286
  O   3.86614293040470     -0.28591063827670      5.83079228441981
  C   2.74006734526912      1.69036283728979      5.03402094816650
  C   2.25845178346714      2.40892312900505      3.92041147538301
  C   2.40347619334148      1.85057329285829      2.62275834986275
  Cl  1.93612391028461      2.89446351363581      1.29420035041579
  C   2.95869111490070     -0.63479951253687     -1.09773361542199
  N   2.12995371967868     -1.18704194744262     -2.14558970292679
  C   3.06864225870209      0.84937005009392     -0.92842431492552
  O   4.29958570544850      1.41644374321318     -0.62239791254308
  H   0.49922465130974     -0.98407067835688      0.36819601871150
  H   0.38945735979205      0.48436247936326     -0.62428196181583
  H   0.55152433982302      0.60699436011493      1.12931714797914
  H   3.52984801731661     -1.02072205391614      3.45629238890550
  H   4.76529534847818     -0.52674080805603      5.56747247265383
  H   2.67515651785330      2.07830469228355      6.04094381066989
  H   1.78314407870025      3.37109143412530      4.03613100549771
  H   3.87675871866361     -1.17685172948214     -0.89851412456875
  H   1.74172269604760     -0.44840935434897     -2.71928489422774
  H   1.34501027557725     -1.69720884026936     -1.75609231115534
  H   2.46194012600718      1.47738936772509     -1.57665510400323
  H   4.46059088930793      1.17629288712428      0.30523982737210
