28
Coordinates from ORCA-job 25491optt
  C   1.68662561252263     -3.21273695139720      1.03827588344922
  C   2.36055723821780     -2.16725528701628      0.15412268279265
  N   2.98382459129115     -1.08872535174866      0.90194905490971
  C   2.20917031954940     -0.12066131999016      1.45142069637065
  N   0.93955467846989      0.04660840179401      1.37350996824075
  C   4.44817628385031     -1.19598799729679      1.08583443506671
  C   5.06882816094913      0.06696517999004      1.67700594644025
  C   4.82797248718991     -2.42691601508210      1.86044832223812
  C   5.51353391629543     -3.51753483056760      1.37027557793202
  Cl  5.85077389593339     -3.63981989055809     -0.36669625105807
  C   6.01073261067402     -4.56731023581307      2.14235915272879
  N   6.04853923753027     -4.61836095020174      3.48016410427301
  C   5.46572332261463     -3.68422813833989      4.25171411972434
  N   5.56619699716510     -3.56012839217318      5.52710789827307
  S   4.29300287057786     -2.49162890970160      3.53427198928109
  H   1.13944253165764     -3.93016519886226      0.42324413664240
  H   0.98708936831235     -2.74203861462755      1.73048445331867
  H   2.43134035299966     -3.74810804927680      1.62639862415853
  H   1.63912799080931     -1.73150380506837     -0.54531924210474
  H   3.14001063802228     -2.64114964407368     -0.44384703978301
  H   2.76780545326030      0.61248216550429      2.02498880623156
  H   0.49324870793793     -0.69652851378712      0.84096374164092
  H   4.86139440962061     -1.31648990838562      0.08221428741954
  H   4.78464015427732      0.20946321905282      2.71904224923003
  H   4.79728255846834      0.95405797360784      1.10114410237686
  H   6.15083030844721     -0.05502855660002      1.64496233340011
  H   6.46204574846372     -5.40368604234604      1.62008989813569
  H   6.17052955489228     -4.31658433703513      5.85087006867107
