25
Coordinates from ORCA-job 25496optt
  C   1.17175409098628     -0.17479916063082     -0.01321570164726
  C   2.66945779789355     -0.15824140694157      0.12715362821260
  C   3.33612227830482      1.01506376347972      0.30945815395503
  Cl  2.50877698794718      2.55551237106638      0.36057960219315
  N   4.73789120695744      1.09011281919286      0.39251800214820
  S   5.53855081871836     -0.07798189600282     -0.47480519536498
  O   5.35220865258001      0.23015353132987     -1.86502871183113
  O   6.87665343643601     -0.10676693895646      0.05926732748626
  C   4.60815629319231     -1.49854234608877     -0.03339726817052
  N   3.27946265843315     -1.36815120171156      0.08208887737427
  C   5.22960198574715     -2.76718462464982     -0.00323878651741
  C   4.65301730855093     -3.99950598774204      0.20341743264401
  C   5.83943604951541     -4.93164438744734      0.26988266396384
  N   6.76667905420077     -4.42058520792679     -0.78591582681232
  C   6.71519926162548     -3.12210425165501     -0.04404278138657
  C   6.70917788694304     -4.05119379342414      1.21671669333652
  O   7.13859881772118     -4.06710511735010      2.32173959281933
  H   0.68538896805475      0.36872283455370      0.79816959089840
  H   0.83897853942252     -1.20988961005002     -0.01440558558588
  H   0.86637964839697      0.29866699256026     -0.94918430704574
  H   5.13090943980341      1.15618501813553      1.32835117807102
  H   3.62688600302313     -4.21430363063683      0.45099823270620
  H   5.70595308848026     -6.00308391730643      0.38142115143347
  H   6.25717005338249     -4.32506216046887     -1.66657238268047
  H   7.46158967368329     -2.36427169132892     -0.24195558020005
