22
Coordinates from ORCA-job 2550optt
  Br  1.02364293778750     -0.40327294829899     -0.32416913150720
  C   2.89997945425185     -0.17398869130220     -0.13128775058660
  C   3.45369409634411      1.12983287986879     -0.01935728067929
  C   2.82832855135202      2.40094763052542      0.00215304224031
  C   3.57159633168041      3.58605658371115     -0.08746709315198
  C   5.04193391228270      3.49739206647924     -0.33008634950271
  N   5.55696684333304      2.32130279994393      0.36946222967957
  C   4.89687616981333      1.11092772833656      0.11888100768979
  C   5.58933347970441     -0.07087904905753      0.08331985387906
  N   5.03990278545419     -1.29941123005430     -0.02946305686195
  C   3.69578926411733     -1.30797023696947     -0.12619201539912
  C   3.10724031294340     -2.62020702677882     -0.24168499998496
  N   2.67171777128242     -3.68022323269272     -0.33312544245364
  C   2.79972106837275      4.75265518952981      0.00578523006835
  C   1.46165355860009      4.50707555047673      0.15942625819495
  S   1.13561773212199      2.80941145553478      0.19901418812997
  H   5.54884876833999      4.38378424315958      0.05686313868596
  H   5.25193727108213      3.43699919200395     -1.41109465934641
  H   6.55824570742770      2.21799236064385      0.28116596956278
  H   6.67279923212519     -0.04317892395676      0.17733486647625
  H   3.21770251862373      5.75021187917509     -0.05387966654675
  H   0.65247223295970      5.21454177972187      0.22940166141361
