31
Coordinates from ORCA-job 25509optt
  C   0.87921156914588     -1.58302302947742      0.18366777930195
  C   1.93933347529171     -0.65685611052427     -0.40657333467889
  C   2.45134051454321      0.30170398684577      0.66783645543107
  C   3.13033990874401     -1.36380100612842     -1.03603184950966
  C   3.29577672047106     -2.84370348315185     -1.03070691010950
  N   3.01918456077184     -2.15111231296501     -2.26190355986604
  C   1.75509144544536     -2.33096178677198     -2.88180311123322
  N   1.07770396409152     -3.47484655792899     -2.68285797452078
  C   -0.04727695892414     -3.68618827187685     -3.33206081390857
  C   -0.63986905137988     -2.78130332252122     -4.25622044715507
  C   0.07985893787751     -1.55675430192622     -4.44789970698470
  C   1.25025751476082     -1.36538860691052     -3.76815516778869
  Cl  2.15903853117123      0.11423572725207     -4.00319967389384
  C   -1.84524914728951     -3.03896999411989     -4.96719764956827
  C   -2.56592990587549     -4.35586453141358     -4.71145579768303
  O   -2.33672287896327     -2.23027967547783     -5.79268054131653
  H   0.04396710584329     -0.99083391254849      0.56467567534311
  H   1.29554794834651     -2.15335559381557      1.01881971719030
  H   0.48958315787436     -2.28564214774081     -0.55227945746688
  H   1.46844046459774     -0.06406796550703     -1.19870261123126
  H   2.96725981446781     -0.25298900799643      1.45704860278854
  H   1.62500876436260      0.84777417073918      1.12686259323243
  H   3.15179939151550      1.02844520958201      0.25240883608563
  H   4.03389198411269     -0.75937178019716     -1.02920728302783
  H   2.49243061514487     -3.44239209630865     -0.61924114491719
  H   4.28524126448292     -3.28088125331682     -0.95307208814399
  H   -0.53094321814041     -4.63664990610588     -3.12627853697391
  H   -0.31105638063401     -0.81480335380350     -5.12938659495736
  H   -2.85061564380022     -4.47086487247460     -3.66071883374976
  H   -1.94583812845371     -5.21949095105482     -4.97263044155039
  H   -3.46580633960181     -4.37076326235519     -5.32405612913765
