28
Coordinates from ORCA-job 25514optt
  C   1.01509472628494     -0.25209275573102     -0.02312119674989
  C   2.50907131557628     -0.05519375648212      0.12609907555232
  O   3.10200569126961     -1.31781224658911     -0.25824798780561
  C   4.41919954315424     -1.26745110211421     -0.64922791511644
  O   5.25650705641263     -0.60296323815246      0.27993411465335
  C   5.28396424723071      0.76245279610920      0.12277150863752
  N   6.45680195231435      1.25495557986791      0.66858598084894
  N   4.42052033612755      1.51327901088055     -0.38850502731372
  C   3.04310686693071      1.13164615131438     -0.69931495029938
  C   2.12460882143560      2.33208763537680     -0.60864068716775
  N   1.37626371594937      2.56156118624785     -1.75562016274047
  C   0.54775776376183      3.60908178351004     -1.66230912575427
  O   -0.20035103474514      3.85852236594402     -2.78681812203092
  C   0.40772551936328      4.41129493345982     -0.56403019258098
  N   1.13917667745623      4.18363133551344      0.59089758146849
  C   1.95255314002474      3.14045016662528      0.48765592074475
  Cl  2.86803375007681      2.79625306248511      1.96973289020570
  H   0.72642739108034     -1.18798465913744      0.45720797210869
  H   0.74286868248740     -0.28955251013545     -1.07894471957859
  H   0.47799367809350      0.57482664099574      0.43762039534997
  H   2.76072943843438      0.11942210604844      1.17512822874319
  H   4.53748573967139     -0.77762051184772     -1.62243097220284
  H   4.77739388247587     -2.29456511628108     -0.69693636527269
  H   7.27359266952039      0.68351189733185      0.52351066015435
  H   6.57704654147413      2.23850553837337      0.48584072260842
  H   2.98604431665474      0.84881928674835     -1.75608865031690
  H   0.08408670641852      3.17621516840230     -3.40724195568245
  H   -0.28170913493443      5.24471925123614     -0.57050702046276
