25
Coordinates from ORCA-job 25516optt
  Cl  2.22056203605364      0.99401194836445     -2.44376946126409
  C   3.33883717080568      0.59681569496334     -1.17909678110359
  C   3.25596167481125      1.17005827318900      0.05026961280352
  N   4.14440568400674      0.77064416396493      0.99861063696626
  C   5.12362202345266     -0.17985719354995      0.79018270102921
  N   5.96293925399033     -0.61646560793488      1.65776828088124
  C   5.12347680331634     -0.68757036787820     -0.57794678798939
  N   4.28391401092846     -0.32897183314047     -1.48585550227433
  C   2.24412331023660      2.23038862425797      0.43684138071347
  O   2.48716743734470      3.34808339091199     -0.40515269206099
  C   1.65984610864770      4.44998659222561     -0.08310547282962
  C   2.04141568386554      5.06367166333414      1.25839795244000
  C   2.18349143343959      3.96478596165989      2.26549203925211
  N   2.21995724812174      4.19227718497267      3.59311434582490
  S   2.40302931257766      2.67813735861313      4.28960414922404
  N   2.43455244212619      1.73752240025077      2.89291793892735
  C   2.29143114318315      2.64426938399819      1.88068189190446
  H   3.90456137749556      1.07638845374668      1.95921536725534
  H   5.82495979678073     -0.16404311845740      2.55936176440096
  H   5.87487930592577     -1.43155568061080     -0.81899401081244
  H   1.25232698103773      1.81532290779365      0.19037089760405
  H   0.61162272007247      4.12174518525400     -0.05982861509485
  H   1.78062408461851      5.16211498475835     -0.90033286230067
  H   1.27377873278007      5.77520614642302      1.57437872073726
  H   2.98051422438091      5.61803348288970      1.16387450576572
