24
Coordinates from ORCA-job 2551optt
  Br  1.26440081970640     -0.27798918593838     -0.63276402211410
  C   3.08262090402969     -0.14671109726283     -0.12519975949952
  C   3.71790041066811      1.11416820868156      0.03545381271647
  C   3.07178792667088      2.41386602704331      0.13643231591099
  C   3.80456466453080      3.55775958158917     -0.04865250411813
  C   5.25265439657828      3.54867797111762     -0.37706520229804
  N   5.79645035042306      2.39008811880095      0.31427998702708
  C   5.12226496762716      1.16188178605702      0.12100921747117
  C   5.86698109657820     -0.01447235079719      0.12298561476924
  N   5.16683429173995     -1.23137937400955      0.12538187485677
  C   3.79988268503185     -1.37703003008082     -0.10618639261665
  O   3.35042887574236     -2.51807849718971     -0.26013691491028
  C   7.26278332245896     -0.03083664627438      0.17084326936986
  C   8.47809773189766     -0.02834315618812      0.20649817087905
  N   2.94280824295507      4.60276710302323      0.15373133545450
  C   1.73107135681686      4.05025987705602      0.45702742861386
  N   1.77037427078255      2.74721274265751      0.46093185795535
  H   5.75841969110720      4.44721140264892     -0.01465755918515
  H   5.40023415686089      3.49440518957805     -1.47107032491096
  H   6.79320125711328      2.27953392278325      0.18635407978687
  H   5.68729096536949     -2.09061278598880      0.06255157009289
  H   9.53845039359737     -0.03371258024233      0.26079131832337
  H   3.15733992263739      5.58215070651404      0.10127903969018
  H   0.86515729907642      4.65718306642143      0.67018178673518
