30
Coordinates from ORCA-job 25530optt
  C   1.00650000797162      0.26207776305566     -0.09439505163272
  C   2.51443078760312      0.10733784951071      0.11747806843598
  C   3.25633161911724      1.06629418495715     -0.81456543793868
  C   2.82684724130894      0.48288650184241      1.57118339668414
  C   2.91447062680665     -1.37432052553454     -0.13478184165913
  C   2.89055934252534     -1.79656219357058     -1.60337141990315
  C   3.05722280236195     -3.28160685585464     -1.75130497673761
  C   2.94844160190579     -3.92552948146664     -3.00708731672969
  Cl  2.52890353350103     -3.01210036257214     -4.42848639230318
  C   3.18603600439141     -5.30274131197812     -3.17512968668728
  O   3.14150432889277     -5.98447557106145     -4.17977291162786
  O   3.53463554293644     -5.97487221170187     -1.98759541880511
  C   3.56586178455714     -5.28239371571327     -0.79958581459568
  N   3.36129134867962     -4.00216237653915     -0.66540045136421
  C   4.28898213155209     -1.66892272212503      0.43501715141652
  O   5.31118942348705     -1.21736332849781     -0.01816488086812
  H   0.70653633025991      1.29623005044342      0.09624069102913
  H   0.44919719563598     -0.38443918114113      0.58761701942564
  H   0.71444223163022      0.01181869226132     -1.11443867466973
  H   3.00772947461050      2.09999166106277     -0.55777443480392
  H   2.97147066444609      0.89888144615321     -1.85438068848613
  H   4.33519913554651      0.93208829052090     -0.73142111140993
  H   2.43261577853477      1.47665763960667      1.79802166185285
  H   3.90284746547710      0.50069681426237      1.75498153722991
  H   2.37103249915923     -0.22880506744834      2.26506422017260
  H   2.21170211008122     -2.00391725763953      0.41772002571256
  H   3.70135167525867     -1.28043192116147     -2.13084910846674
  H   1.96457005323638     -1.47190716148209     -2.08674747616206
  H   3.81270329345073     -5.91554021897282      0.03862145441591
  H   4.31539396507445     -2.29586942921597      1.34330786847565
