21
Coordinates from ORCA-job 2554optt
  Br  1.13904209945988      0.43858820446871      0.08898934924671
  C   3.03431487258527      0.16564028239218     -0.00747044027491
  C   3.54285025060758     -1.15116700295621     -0.02109165028476
  C   2.88929704095255     -2.40073368721596     -0.06183096159463
  C   3.59669237450000     -3.60448785481408      0.06554278999177
  C   5.04977541182941     -3.58553668562497      0.40401312714317
  N   5.64196473764776     -2.36454212377739     -0.12646391474332
  C   4.98622810274369     -1.15946213151694     -0.05520142666938
  N   5.72426018772895     -0.07256799515277     -0.08165358398437
  C   5.07378603724450      1.10934477876916     -0.08810419886809
  N   3.76060314555977      1.26134660652817     -0.04587136703246
  C   2.77014449555614     -4.71482872944115     -0.07146849113278
  N   1.46517891156114     -4.49158640103650     -0.29357100536113
  S   1.21909667410982     -2.84529781302968     -0.34311567436243
  C   3.25841898444970     -6.05546446452374      0.04161799118359
  C   3.70093766493783     -7.16902262377183      0.14655093344275
  H   5.55589735770117     -4.44565346670242     -0.03722048104469
  H   5.18767840085742     -3.64708363608402      1.49461633768766
  H   6.63838852974706     -2.25625618552545     -0.01449681283266
  H   5.68039968227690      2.00552254987294     -0.12157977941127
  H   4.07604503794331     -8.15875162085801      0.23580925890122
