34
Coordinates from ORCA-job 25551optt
  C   4.56193515931158      0.00774484638382      1.13327109955190
  C   5.40209338672253     -0.20873787715930     -0.12014567673364
  C   4.77519366799839     -1.09032792947537     -1.23247966560328
  N   4.66027776212576     -2.52532209129453     -0.98809765681268
  C   3.53307840806654     -2.83321936645238     -0.13236957387045
  C   4.51862237980115     -3.31178676667696     -2.21992169802567
  C   5.61065564246737     -3.29776910068146     -3.29920215224861
  C   7.01030119956117     -3.86020539674191     -2.94363954148114
  C   7.92885688788806     -2.78126141053483     -2.42783230889385
  C   7.61207989187865     -2.27512095090650     -1.17677390923780
  C   7.57991773799628     -0.94288383343912     -0.81201973075155
  N   6.75304096160452     -0.60980375090723      0.30945255715031
  C   8.03754754960547      0.10785909435304     -1.65332622648629
  Cl  7.99955317913546      1.75274154132877     -1.04197919122773
  C   8.59305039888460     -0.03281759995022     -2.93412767902616
  O   9.03940299443112      0.82567285322325     -3.68526889227045
  S   8.67820531155263     -1.74173469981349     -3.61788901444981
  H   3.51149366339554      0.17837723458059      0.88853885796219
  H   4.94523407108873      0.87431875279746      1.67224179381318
  H   4.62295557062388     -0.84658915620646      1.81127416330067
  H   5.51293902879069      0.76647587498424     -0.60389734790132
  H   5.40683432793314     -0.95332697312820     -2.10913491472949
  H   3.78478775857499     -0.66348781840133     -1.48166052168063
  H   3.61756829636091     -2.32180074884390      0.82203236234919
  H   3.49488193497635     -3.90720571550923      0.05996411966985
  H   2.57205210196008     -2.53571599659706     -0.59384729986417
  H   3.57282556455346     -3.02272113157031     -2.71961658476883
  H   4.38674684104842     -4.35144164534589     -1.90111912309379
  H   5.74543769695532     -2.29570697531837     -3.71341408594239
  H   5.18258682939204     -3.89742291701277     -4.11081371700091
  H   7.42826851077796     -4.33342509175828     -3.83633375221686
  H   6.90389076539872     -4.64448247391294     -2.18493865822417
  H   7.06149773485939     -2.94937349137754     -0.53130566760324
  H   6.65918678427892     -1.44249928863555      0.88137963634764
