23
Coordinates from ORCA-job 25556optt
  C   1.10659266300026     -0.74528060997394     -0.17432985724404
  C   2.49736728860304     -0.16968775492573     -0.12719104309508
  C   3.21815101847557     -0.16158139474355      1.10461309690761
  C   2.60372418426087     -0.07804527958995      2.37748036244490
  Cl  1.00099661111112      0.60873640178325      2.53244887503180
  C   3.21391891914510     -0.41171499645559      3.55924282152308
  C   4.52759732760362     -0.97010802399728      3.53908778024173
  N   5.20259233528685     -1.48619684546900      4.49780111677704
  O   5.16628911417771     -0.94679779557384      2.33084347877834
  C   4.65128802831281     -0.36184978011020      1.19949244123702
  C   5.60826049867376     -0.05190092238333      0.28763764228602
  C   5.42051534401919      0.63201440342533     -0.95110052608264
  C   4.28998194324419      0.85985463740585     -1.64347722762957
  C   2.93959085458821      0.32054067433803     -1.40525714704715
  O   2.15867177797731      0.32565711791010     -2.37581680506413
  H   0.90362712750213     -1.37511826400660      0.68983566859404
  H   1.01947736850046     -1.33611364622680     -1.08764671503657
  H   0.33078700243744      0.02290162517429     -0.23403735630535
  H   2.71906189407055     -0.27188615372024      4.50737217276783
  H   4.62832827506100     -1.47654245675544      5.33575851235033
  H   6.62285483090843     -0.27448570752208      0.59168812343647
  H   6.33762954618580      1.01319492350324     -1.39321322655600
  H   4.35969604685449      1.39240984791348     -2.58523218831572
