32
Coordinates from ORCA-job 25550optt
  C   1.16142230704506      0.37482702384493      0.02993483297891
  C   2.66593527875378      0.08245172107940      0.05282260342455
  C   3.44975733560491      1.39299681662149     -0.01810426471088
  C   3.05113587168227     -0.72624015359286      1.26252749850435
  C   2.96062193406310     -2.10558603533396      1.43611409391734
  N   3.37413028852361     -2.39565769874197      2.72495949495222
  C   3.72004006599215     -1.24019774570342      3.36597849020127
  C   3.53234454949496     -0.19480869085124      2.49222988727602
  C   3.47072059474808     -3.72511468250155      3.20943194974665
  C   3.73274312863302     -3.87809386117188      4.66526768607257
  N   2.87878221679347     -4.71164681312978      2.51763878798199
  C   2.44727134279734     -4.48649907534681      1.28419838108557
  C   1.85192626398032     -5.67775526978855      0.56390920152449
  C   2.71798504849425     -6.23392016227886     -0.47867174141290
  C   3.42944714506597     -6.69607625746831     -1.32724196554460
  C   2.55603491056565     -3.23936495543406      0.65573978718240
  Cl  1.87924337965943     -2.99751931483871     -0.93694546518714
  H   0.88050857589557      0.94468080108640     -0.86159820851518
  H   0.88361133412081      0.95599451880317      0.91363238640969
  H   0.59346546326574     -0.55513527578851      0.04107941754422
  H   2.90378622329943     -0.49640997267566     -0.84117266220485
  H   3.19974205179832      2.04004663252252      0.82663148343835
  H   3.20890012469044      1.93804935436770     -0.93415833115152
  H   4.52504834054130      1.20959135812514      0.00732256091648
  H   4.08092337399949     -1.25616075912756      4.37928256549090
  H   3.72689507774467      0.84291013607938      2.71263501289460
  H   2.95451866135734     -3.40063249646126      5.28800690726353
  H   4.69079736350841     -3.44552272226077      4.97106727901329
  H   3.74558731887628     -4.94187692057034      4.89463556514156
  H   0.89604538254416     -5.41211471822829      0.10365730732621
  H   1.67132078616022     -6.44343770238448      1.31880598637763
  H   4.07530826030034     -7.08277707885119     -2.07661652793778
