31
Coordinates from ORCA-job 25559optt
  C   1.23621544274287      0.02727199061354      0.49730018353019
  C   2.65615592769961     -0.07553962255887     -0.01673110328211
  C   3.24066414515448      1.09669229450510     -0.83155041097086
  C   2.53071947258955      0.41148276207974     -2.01488804968940
  N   2.80828190509299     -0.88196411718456     -1.28509802150520
  C   4.29244254711554     -0.88772033491088     -1.38454248105120
  C   4.67823421837981      0.60599544788468     -1.05417254561450
  C   5.44594690306828      1.33055672619414     -2.12258639712964
  C   4.96783809198029      2.54919957129032     -2.71729984632500
  C   5.77472831085766      3.15756268605616     -3.70218149911506
  N   5.34140908525495      4.36830360322634     -4.29565829598334
  C   6.96698491329002      2.55593178578308     -4.01163619299438
  Cl  7.97794658958017      3.25639306414135     -5.28390762960991
  N   7.48382529323846      1.43961110693785     -3.43193498172027
  C   6.68399393034389      0.86472943965450     -2.51626164738762
  N   7.20838227418834     -0.32864034766621     -1.95056986611089
  H   1.20821605401728      0.66567434734327      1.38305075715261
  H   0.86989488793635     -0.96180939669673      0.77841755138357
  H   0.54841460463423      0.44425332152635     -0.23704978288377
  H   3.29989398754549     -0.45240488907512      0.78580039439219
  H   3.09596387220710      2.14034979987696     -0.55855371625036
  H   3.00249162072059      0.49925273670682     -2.99302009605264
  H   1.46203406112905      0.59503714696116     -2.08736945399516
  H   4.60697009425670     -1.16653536841896     -2.38754278940278
  H   4.70120585376694     -1.60572235228124     -0.67156910937561
  H   5.21760362461310      0.63776652478272     -0.09290582135332
  H   4.08209215259482      3.05976999953705     -2.36398233683855
  H   4.34321244174718      4.33122483982350     -4.46582603221701
  H   5.82689010212817      4.55132725641092     -5.16362871568268
  H   8.19930056647076     -0.36765041940674     -2.15241608089113
  H   7.05204702565525     -0.38939960313627     -0.95168598302616
