25
Coordinates from ORCA-job 25578optt
  C   2.80486138741089     -0.94816094651250      2.76526670981943
  C   3.50882315700897     -0.45436177479689      1.54981572492636
  N   4.00508350045019      0.73092340555330      1.45356763854000
  C   4.59615199486667      1.10629107038027      0.29044549897782
  C   5.23964744587220      2.45218059560728      0.25898250544447
  N   6.69465760023150      2.45215333972899      0.46273532353950
  C   7.29628433062722      1.63614187429228      1.51348357565795
  C   8.78382495044071      1.73480278689687      1.13286694643907
  N   8.80415855937222      2.10666304684891     -0.29296630587930
  C   7.61171561158470      2.48569696244150     -0.55127326402962
  C   4.64191557241128      0.18735280644860     -0.78598797740099
  Cl  5.30224751840432      0.66829767246740     -2.32383827807467
  C   4.08325390334687     -1.09707018190475     -0.71066412542803
  O   3.99079441662415     -1.97137079040126     -1.55025512214832
  O   3.54263711873893     -1.41071389681961      0.56419822504976
  H   2.82706504041302     -0.17757720866283      3.53180739088443
  H   3.27662807706142     -1.85888929202488      3.14649829706600
  H   1.76531311777692     -1.20248993354503      2.53455595607296
  H   4.78792637748256      3.04658815548305      1.05584342652607
  H   5.06997738651300      2.95969757459364     -0.69394979520847
  H   6.91791024603085      0.60997730336034      1.44627867875788
  H   7.06300900473355      2.02541536773430      2.50507765219719
  H   9.32539352268659      0.80392331411628      1.29913327470118
  H   9.28697905502845      2.52153773749209      1.70665606287127
  H   7.29774110488266      2.85299101122262     -1.52227801930196
