30
Coordinates from ORCA-job 25572optt
  C   2.68668243908688      0.08292463348388      1.48505838337099
  C   2.60557211432247     -0.09114785889945     -0.02987096081704
  C   3.14976105375120     -1.43281893531586     -0.46263457457916
  C   4.29149526088786     -1.51601221292030     -1.25068376352933
  C   4.76642803842499     -2.79868797933323     -1.62306680359735
  C   5.96437751432452     -2.88916498734714     -2.52972932755053
  C   5.56220702462233     -2.98550167458009     -4.00301250419405
  C   4.07743696696118     -3.89557714885384     -1.17169539605785
  Cl  4.62431110323182     -5.48064066652286     -1.66264740372211
  C   2.92550932580163     -3.75722517482380     -0.32975764780757
  N   2.49167879703958     -2.48599899763407     -0.02091060547683
  C   2.16317597997242     -4.80034975018651      0.24713234338386
  N   2.29971537175167     -6.11939752564755      0.17839024368093
  C   1.34126611287869     -6.74745758241938      0.91439969058732
  C   0.45532429497981     -5.95060521184556      1.56177304595969
  O   -0.59762725093819     -6.30021966403541      2.37426909884325
  S   0.78684575600163     -4.27739342763949      1.26526929220615
  H   2.26088984490051      1.03710590375277      1.80385305921053
  H   3.72619109704681      0.04194031756428      1.81709141092082
  H   2.14631030911051     -0.72793288353989      1.97331576668854
  H   3.15509620255612      0.70648595250194     -0.53529294977861
  H   1.56074345614068     -0.02653323440089     -0.34426305722498
  H   4.80899950800966     -0.62445071507679     -1.58276626510167
  H   6.57693593111486     -3.75168458236900     -2.26465253570219
  H   6.57455829585826     -1.99513327286665     -2.37846492544826
  H   4.98090552861013     -3.89167573225739     -4.17543985902387
  H   6.43982790637784     -3.00716968277655     -4.65369230279878
  H   4.94532660149872     -2.12953553101468     -4.28285495610961
  H   1.32247276972417     -7.83207547241940      0.95771054231986
  H   -0.62041735404884     -7.26106690257702      2.41517296134788
