20
Coordinates from ORCA-job 2557optt
  Br  0.88734231019676     -0.95036610033896      0.01039853528228
  C   2.75744662674411     -0.62373703677496      0.05181843856462
  C   3.18505466917215      0.68589364255850      0.07534200003347
  C   2.73720411710780      2.08722583788495      0.08586074888785
  C   1.67041629295582      2.94240179137764      0.08174758850123
  C   2.26189283521493      4.25711745531135      0.10992957958675
  N   3.59530135608937      4.26357520073199      0.13060916942807
  C   3.93679949732162      2.95126947928282      0.11706567216213
  C   5.09694790556694      2.13137064828630      0.12528864791805
  C   6.49848234711046      1.85265647592829      0.14512382811803
  N   6.78773369429247      0.54346179013553      0.13359941490891
  C   5.56375001692098     -0.11896405089246      0.10592105178202
  C   4.56239014573536      0.81990313190727      0.10041514213456
  C   5.10474569028787     -1.44181775689578      0.08394205585563
  Br  6.38242346210867     -2.83836254571181      0.08871632225434
  C   3.72065132652476     -1.67859472666001      0.05933360271874
  Br  3.09665057229262     -3.46992057512314      0.03977154111378
  H   0.61574089735515      2.71749267222654      0.06272446647392
  H   1.70852073274693      5.18860475082558      0.11493500181381
  H   7.30850550425521      2.56878991594035      0.16845719246182
