31
Coordinates from ORCA-job 25570optt
  C   0.76651149409749      1.20053692712687      1.29419138507383
  C   2.28595138869170      1.24356388697438      1.28413206540389
  C   2.90604978227315     -0.12866336208771      1.52056364039710
  O   2.17673397004391     -1.13493072197426      1.66574929428097
  C   4.33089232761917     -0.20238558247646      1.56342212902795
  N   5.07596534997854      0.94971368257387      1.38364212450273
  C   6.36060475280461      0.83279611976660      1.44208130559208
  Cl  7.28733576570274      2.33980677413777      1.21890762678196
  C   7.10714576328669     -0.32244076864542      1.65810465777790
  C   6.35594477219757     -1.51382398318591      1.83197158264990
  C   7.05274563443597     -2.83285304532756      2.03552866038735
  C   7.50454079999337     -3.49712604564967      0.74190533690280
  C   8.64276344144167     -2.83265958165742      0.01158211195865
  C   7.32141124188298     -4.96363385154569      0.63961627049191
  N   6.47391197671275     -4.04960133530258     -0.12750614703360
  C   4.99012617794259     -1.44424770096202      1.79121298640742
  H   0.34475937425062      2.19484289199045      1.12864664955607
  H   0.39786840500115      0.81768370544800      2.24639770056738
  H   0.39424809741850      0.52784431479532      0.52121773402171
  H   2.66486440801302      1.93657569315589      2.04097988946359
  H   2.66111154519431      1.64045668066039      0.33572600372479
  H   8.18551975567756     -0.29776260400810      1.70311295254376
  H   6.37061264220553     -3.51491086295937      2.55040558479803
  H   7.92978632730633     -2.69900161113116      2.67807978839702
  H   9.52873865797795     -2.77140389531145      0.64862305078855
  H   8.35899502256486     -1.82070618172650     -0.28037178308964
  H   8.89036086400282     -3.39801001030960     -0.88708164555276
  H   6.89112476087339     -5.47853420526580      1.49117027686404
  H   8.00288825171205     -5.55728353859262      0.04056841111929
  H   5.55859882221834     -3.93569225682829      0.29988132892301
  H   4.36988842647856     -2.31914953168195      1.94653902727230
