22
Coordinates from ORCA-job 25585optt
  Cl  1.01021661842175      0.25628491767617     -0.07161468022573
  C   2.75453282591705      0.11675452323431     -0.16829985198011
  N   3.45282941769682      1.16763358507987      0.29424924312128
  C   4.79791588487260      0.96365634601514      0.28554605501724
  C   5.39858641165379     -0.17481802912966     -0.23193998138518
  N   4.65862340747798     -1.13851561688682     -0.89411506969417
  C   3.23324979232030     -1.09807186185070     -0.72119447805807
  O   2.59312400536203     -2.09590709331394     -1.07752322943419
  N   6.75957999798833      0.04248039079998     -0.34768485850660
  C   7.92434127970963     -0.74414117138090      0.09445100515062
  C   9.01339239376100      0.30022665877051     -0.19603553009038
  N   8.34571439486914      1.11327908473577      0.89228794646693
  C   8.08805599149475     -0.24444300050367      1.55081987815663
  C   7.02280446844999      1.26313655429205      0.30660186073459
  C   5.86016900874523      1.85253212551048      0.69310488598592
  H   4.99622369859434     -2.09004054059174     -0.93100660369108
  H   7.93642219758781     -1.77997772923304     -0.23392335674199
  H   9.01015964575607      0.77123649189998     -1.17775424113580
  H   10.01142388939842      0.00229870139710      0.11900328466489
  H   7.20310745819604     -0.26584072656702      2.18676919446239
  H   8.97619575379169     -0.60180256546538      2.07241412720481
  H   5.74833145793511      2.77603895551152      1.23684439997801
