30
Coordinates from ORCA-job 25581optt
  C   2.56253843194524     -0.91086579724140     -0.05064646310790
  C   4.03197184083829     -1.07694159836547     -0.43072844607102
  C   4.24561785260731     -0.96116783332597     -1.94906200299071
  N   5.50181413794586     -1.56230107559036     -2.37516221643214
  C   5.47420843589940     -3.00741218271752     -2.18160145432181
  C   6.86916789017128     -3.62079166258636     -1.98762272384494
  C   6.60514477330305     -4.82458332238086     -1.14406364015470
  C   7.46791379166127     -5.84473334400308     -0.67038812565882
  C   7.08493330344892     -6.60242883245173      0.40293893686592
  N   5.91166329245873     -6.44445297846032      1.11774905514384
  C   5.15089769056178     -5.44046737323989      0.67875819999574
  Cl  3.65917142820532     -5.16770750009257      1.60506815484224
  C   5.40954183955713     -4.62591662071738     -0.38253399829815
  C   4.64443655149484     -3.43788674881605     -0.90491649431269
  N   4.65183201709457     -2.32183574798359      0.02874321474937
  C   3.27478098078739     -3.83055898761334     -1.33261249198097
  N   2.22025921360954     -4.07726312730250     -1.71803830085979
  H   1.95259309940334     -1.70093813780001     -0.48885461301431
  H   2.18623989234639      0.05447913520025     -0.40144104316378
  H   2.44125178635496     -0.94505887242486      1.03401708857769
  H   4.59542286146832     -0.26109677078733      0.03945257766173
  H   4.21528500865457      0.09107899472169     -2.24055908600799
  H   3.43251510340944     -1.46566146780245     -2.48007367310100
  H   6.25235370472423     -1.18659689456939     -1.80353781718678
  H   4.99627872540503     -3.46464996448627     -3.05149459073798
  H   7.50349423888709     -2.87576051435078     -1.46750289901525
  H   7.34707957926221     -3.82520007719271     -2.94915690789378
  H   8.42111338292187     -6.04801684611280     -1.14741048670438
  H   7.72284176050012     -7.40867050400746      0.75024110738073
  H   4.32363738507240     -2.61959334749941      0.93943913964165
