32
Coordinates from ORCA-job 25606optt
  C   4.66014877772092     -2.35139310888987     -1.38056133099504
  C   5.01699233894092     -0.95244373712934     -1.88243730174306
  C   4.29512677343315      0.13426978091133     -1.16041329733739
  C   4.37441038514226      1.38775308818987     -1.59335279578703
  C   4.55076148781231      2.50329981015013     -0.62484948777505
  C   6.06936121857613      2.54931256411680     -0.29165224398813
  C   6.86114929556494      3.18491301058634     -1.42464345338200
  O   6.23170392699421      3.34530834962503      0.89596149750385
  C   6.62845350720293      1.15493613755568      0.08401079589591
  C   7.19730410954698      0.23160208594141     -1.00141718005885
  C   8.60977476447385      0.31537949042456     -1.12296234937927
  C   9.28248938533422     -0.54985523631816     -2.03721853958589
  C   8.50074770449229     -1.41963184148303     -2.73409375572747
  Cl  9.30995836737119     -2.53867460576487     -3.86221220609282
  N   7.18088935995596     -1.54407017130923     -2.68441736319735
  C   6.52549338307425     -0.69261535800150     -1.79725246528478
  H   5.27898616168303     -3.09043796261759     -1.88732390164465
  H   3.60556367536627     -2.57782296106371     -1.56086746557943
  H   4.85042703979463     -2.42131777868842     -0.30560832382199
  H   4.78277472289769     -0.90992332466519     -2.95537040509356
  H   3.98450114089396     -0.05836180122392     -0.13481837071573
  H   4.73702222008494      1.55139592146632     -2.60594521783456
  H   4.02415644913640      2.29318757693380      0.30915055452174
  H   4.23264041315068      3.48459662432180     -0.99457641079326
  H   6.46286478539986      4.17990818644281     -1.65128905047326
  H   6.82004317899300      2.56868115811435     -2.32305161411904
  H   7.90820488393520      3.27626638008903     -1.13643843237594
  H   5.89033544196230      4.22445550451140      0.70288630435588
  H   5.87916295875016      0.64826344025304      0.69313809152293
  H   7.46061708551554      1.37254700570994      0.75601224072014
  H   9.17162654159159      0.98618612094092     -0.48742017548383
  H   10.35530851520815     -0.54171434912974     -2.16396634625104
