29
Coordinates from ORCA-job 25611optt
  C   5.60295954514250      0.03939043315120      2.03211861900864
  C   5.95302027740583      1.50834245319844      1.80113269986300
  C   4.75262037100687      2.41273558932184      2.28752287569862
  C   3.83855482938566      2.92020116892873      1.18998234199885
  O   2.76836191730417      2.40998696911602      0.95050549088614
  C   4.34220673863567      4.11934520022167      0.36497415116254
  N   5.68790280158029      3.79444975651031     -0.01246300803515
  C   6.65723347311553      4.12984849677913      0.73302420996013
  N   6.73554799179905      5.16582328409176      1.63597487789216
  O   7.80903280679492      3.41095885308229      0.65500999189313
  C   8.10161705945547      2.86219605445277      1.93037482091996
  N   9.15905210627969      3.44221374529118      2.51014832478566
  C   9.44470718068656      2.98835046593972      3.77999944981490
  C   8.66125268268072      2.07176484031652      4.41554139854718
  Cl  9.08879870956209      1.57945556334408      6.04643041405877
  C   7.51666485564708      1.51226830253311      3.82201897575839
  C   7.24038837789072      1.93401882933243      2.47486935127325
  H   6.41447918189238     -0.60525574305264      1.69078222317359
  H   4.69440561156122     -0.21726598271511      1.48222252276469
  H   5.42243924819672     -0.16941186586893      3.08796286718799
  H   6.07244630831403      1.65046955691181      0.73063604182542
  H   5.16673002349917      3.26847985241899      2.82538499589891
  H   4.13026485536314      1.85099992433637      2.98522156780048
  H   4.21329331549781      5.03386057163097      0.96867147693706
  H   3.69713736635369      4.20982565913290     -0.50801830047965
  H   5.87773076827561      5.51508847852953      2.02674145009053
  H   7.52047396340241      5.10208873322733      2.27644409050836
  H   10.30709501552511      3.41805378429596      4.27347761968588
  H   6.96858261774560      0.72271702554151      4.31030845912048
