30
Coordinates from ORCA-job 25617optt
  C   0.84762013989531      0.06695317404839      0.13083866522986
  C   2.37090299140269     -0.07725701765296      0.00983164644242
  C   2.94480372778356     -0.35711231182804      1.39894956493042
  C   2.62117061486294     -1.25674394443598     -0.93728753009833
  C   2.96541492438184      1.23646386617186     -0.58719918988274
  C   2.31516709463421      2.39325585798095      0.04318793093664
  N   1.81184965529358      3.26493377425492      0.59385775272417
  C   4.50457694608453      1.47991625507696     -0.46293628176905
  N   5.38257668448589      0.39964690404778     -0.86588559052216
  C   4.86891191043621      2.66083874458623     -1.36169827311114
  N   4.60803654009398      2.55607626145322     -2.59514378302637
  C   4.91655032957885      3.59786657458481     -3.54376885985807
  O   4.41248847241299      3.51589433321022     -4.67083709457453
  C   5.82380367643567      4.59247761726645     -3.09774530036444
  Cl  6.39844983916678      5.69666792577588     -4.33845545434002
  N   6.36854899577744      4.80627705429491     -1.90466657593062
  S   5.69389769908291      3.99564969114601     -0.61008980495580
  H   0.40897959086914     -0.89386860198706      0.40871564104331
  H   0.41215762169105      0.37846137374676     -0.82139362094375
  H   0.57125523281463      0.80353289025272      0.88460953306350
  H   2.45137327876792     -1.22706238523098      1.83817447669187
  H   2.77949918861656      0.49570170878950      2.06165193617190
  H   4.01674275613869     -0.56055906489921      1.37403431656862
  H   2.14783355654000     -2.15314012050398     -0.52980740797882
  H   3.67408440761184     -1.47562436748874     -1.09213759716904
  H   2.17810738469783     -1.05642956960199     -1.91511168310797
  H   2.73118538011995      1.27504996482142     -1.65601583556584
  H   4.72922583328632      1.73456614373668      0.57653637578032
  H   5.29202569379955      0.24064873558806     -1.86373961317270
  H   5.21375983323702     -0.45708146720480     -0.36046834321159
