27
Coordinates from ORCA-job 25615optt
  Cl  1.72663497993548     -0.52147194400218     -2.02739450244497
  C   2.56409204097702      0.30525768288430     -0.73561716015646
  C   2.95886478110802      1.59613405912900     -0.87751562101701
  N   2.61830831537369      2.38177519336352     -1.98394392626830
  C   1.19804562123524      2.74017846953124     -2.12607938176575
  C   0.78710118067789      3.88945024780380     -1.17728347751707
  C   -0.44670943424942      3.58581875858452     -0.29483412627516
  N   -0.45863267761161      2.27708758336897      0.35706204835425
  C   0.55558837399918      1.88818579103829      1.01246687907420
  O   1.62672515870159      2.62379580087152      1.29992227338207
  C   2.95711353091924      2.05438574434867      1.46590231581760
  S   2.99473192840601      0.38923462929256      2.04435673833133
  C   2.78319947057015     -0.50928369697681      0.47979427454062
  N   2.78530424909938     -1.78081343157741      0.44202839152928
  C   3.71559889840165      2.17728252842098      0.26523920470805
  C   -0.63898037218629      4.68640545753416      0.66112820230332
  C   -0.78508857065554      5.59895460233773      1.42500427441377
  H   3.16311632724514      3.23317342696477     -1.91570197630027
  H   0.60301265039433      1.85112608073616     -1.93008819812721
  H   1.02131639502404      3.02337429622979     -3.16558382098529
  H   0.55425737310282      4.79246629420665     -1.74746099858371
  H   1.62413796895515      4.12483038750990     -0.52224736827553
  H   -1.32722547858896      3.58679662713499     -0.94526737551900
  H   0.55109894944145      0.87937359428711      1.41830393221833
  H   2.90429391061729     -2.16189673679077      1.38092768332342
  H   4.74347160742596      1.83984150608167      0.36125563331568
  H   -0.90237717831892      6.39353704768684      2.12062608192381
