29
Coordinates from ORCA-job 25624optt
  C   1.08332006906929      0.41032963394060      0.05612208838160
  C   2.44212770195640     -0.20814322049841      0.33453865056814
  N   2.89396986162215     -0.01290397172512      1.70687081640551
  C   2.65807822922254     -1.71949349942731     -0.10335890092381
  C   4.12737366233186     -1.31420624742725     -0.43275419339499
  C   3.55650230625380      0.03374366606966     -0.71301054424826
  O   4.65639416663307      0.91266797127427     -0.92756663574376
  C   5.51882600362197      0.01056225866293     -1.58513874009027
  C   5.21090864974246     -1.30496253648982     -1.47882767181583
  C   5.97109278609222     -2.38063338677523     -2.08323940542374
  N   5.78142681617851     -3.55616812315533     -1.48472073197208
  O   6.59217409392290     -4.58409260707177     -2.06184742847654
  C   6.69375274907432     -2.05426786957559     -3.28177529009926
  N   6.83384045636473     -3.03761728112042     -4.27766914323862
  C   7.10726273906147     -0.75672365583864     -3.56180261148697
  Cl  7.07185089145631     -0.25963515964246     -5.32678758305272
  S   6.93298010492135      0.56721087117024     -2.43512861190462
  H   0.32251044047491     -0.03717336156493      0.70229103577372
  H   0.78294169736180      0.25368919460989     -0.98113296309791
  H   1.10513437536127      1.48522652731069      0.25324357264865
  H   2.14461041062073     -0.22294412442824      2.35678133704627
  H   3.16478052109350      0.95352262863634      1.85189917256590
  H   2.05325476673648     -1.96843849877411     -0.97432533728755
  H   2.52603088543140     -2.45992427670720      0.68306105398943
  H   4.61269262474239     -1.29453789495838      0.54675346089628
  H   3.03345815084945     -0.02263149354940     -1.67758473992801
  H   6.28711918988677     -5.35442029790193     -1.58041761946865
  H   6.86863637256589     -3.96797639957564     -3.88856101434767
  H   7.59894927734997     -2.84505884546742     -4.90791202227422
