23
Coordinates from ORCA-job 25634optt
  Cl  1.11790294223718     -0.38830160029158      0.46390959848432
  C   2.84980839446471     -0.14764251446320      0.29260219858691
  N   3.24219144577380      1.11304534579317      0.46542027596078
  S   4.76518268568296      1.50156723037463     -0.11215268171576
  C   5.59361667642760     -0.03164802248579      0.06554861349722
  O   6.94902469453887      0.11206739195950      0.06895981039618
  C   7.69297180040382     -1.08942309859114      0.10604618349523
  C   9.14366702192237     -0.73002638314657      0.00386212171110
  C   9.58318149348298      0.54022699053850     -0.13796068171882
  N   10.92503898688929      0.77890392058120     -0.23144164418789
  C   11.88848204156993     -0.20484091478748     -0.19121190890346
  O   13.07934634652374      0.04161712746742     -0.28142946857242
  C   11.29991916387643     -1.53569941939143     -0.03013459199625
  N   10.03649108970066     -1.76999520042417      0.05846262686808
  N   5.05223527888570     -1.16135233550188      0.17945546357571
  C   3.62713969065895     -1.31237818599007      0.07578753674441
  N   3.13756796845498     -2.49994741006264     -0.15951974822870
  H   7.39985903132552     -1.74655104179849     -0.71684158019827
  H   7.49706109908558     -1.63527613847926      1.03185908558526
  H   8.91621768353454      1.38783681971745     -0.17826363158884
  H   11.26758489660190      1.72350196511850     -0.33702983403472
  H   11.99741140018223     -2.36589338043839      0.01557568236581
  H   3.92409816777570     -3.14179114569826     -0.23050342612590
