26
Coordinates from ORCA-job 25649optt
  C   1.16530633433286      0.20767220820266      0.23383488247360
  C   2.67095732165485     -0.04622995364740      0.21144809649269
  C   3.40691188585005      0.92552766537278     -0.69854934614397
  N   2.95345773990128      0.92970772789709     -2.09991839293051
  C   4.15586183391310      0.14736655086623     -1.70597130704145
  C   3.88652713636021     -1.27804559463355     -1.41255232955741
  C   3.04585103558855     -1.41861367235047     -0.35773708832058
  C   2.51005694044647     -2.65932049815943      0.14347647072374
  C   2.50271371808403     -3.82254537466337     -0.67492507861156
  C   2.14024104939009     -5.06147621278603     -0.19931010338007
  Cl  2.21022524454980     -6.45912260823251     -1.24327103791224
  C   1.64375501130181     -5.20212650321794      1.08989416976077
  Cl  1.78467592349128     -6.70588525360547      1.99883518160351
  N   1.62288509796186     -4.05623872051231      1.87224483677573
  C   2.04870269730715     -2.77750494488015      1.49969055527733
  O   1.98211701714242     -1.89132712713831      2.35896866398349
  H   0.95610399912085      1.21305992219516      0.61040731694317
  H   0.67252992485542     -0.51194793653476      0.88404935763584
  H   0.76573943706990      0.12979279463587     -0.77778611279188
  H   3.05316356904911      0.03748035495585      1.23066497586832
  H   3.78886046710751      1.85376179176574     -0.29132618328824
  H   3.25345061206439      1.80303172340604     -2.52588537383523
  H   5.11189764389604      0.47712768072400     -2.09477508566414
  H   4.31205601170338     -2.09141858056249     -1.98422595178142
  H   2.73669677745264     -3.71948002211423     -1.72718534305600
  H   1.21925557040488     -4.10124541698294      2.79490422677651
