27
Coordinates from ORCA-job 25645optt
  C   0.88232270776003      0.06508325127047      0.01052479213000
  C   2.37723246089365     -0.01751845453898     -0.08936447243100
  C   3.00679319294623     -1.19775293806291     -0.30758787442611
  S   4.72182852922488     -1.06376799766723     -0.43758952723301
  C   4.63475326138459      0.64509689805101     -0.18386843305238
  C   3.31668492876243      1.09026057291302     -0.01827002319713
  C   3.12655728150363      2.46923563835071      0.17953278073805
  Cl  1.57153523988858      2.99497340315274      0.77471357027732
  C   4.18714445658728      3.42580348478896      0.09790546862177
  C   3.87041943092884      4.82771489499588     -0.12804553673887
  O   2.75731492112130      5.20569231101512     -0.53716634713660
  C   4.85172826590676      5.94576110093123      0.27149836991951
  C   4.96621351936545      5.87170652504909      1.75791044285166
  O   5.98358160268417      5.62136784626533      2.37834303010313
  C   5.52042282902937      2.87376378745303      0.07035265222437
  N   6.65913802424554      3.70279180454040      0.10467637937689
  C   5.72480028428289      1.52144524444776     -0.07782013300354
  H   0.44566244976478     -0.91246970974637     -0.20080475619130
  H   0.48097814366547      0.79131627290563     -0.69657527269208
  H   0.56459304504727      0.38557894152441      1.00225137218707
  H   2.53294672558072     -2.16053795741545     -0.42279183804138
  H   4.34065783982444      6.86656106183807     -0.01047873337291
  H   5.82486447611622      5.89296393338648     -0.20858895517299
  H   4.01145561557643      6.01413693678571      2.29649180476181
  H   6.65054826803529      4.37878364067135      0.86106326400593
  H   7.49835074114832      3.14490733672679      0.17509676167006
  H   6.73847175872531      1.13910217036769     -0.11740878617830
