23
Coordinates from ORCA-job 25640optt
  Cl  4.46901874656800      2.74898421955741      0.97777190388135
  C   4.95253280032394      1.15064002843507      0.52237101218347
  C   6.32956175784448      0.80771171989265      0.46772050357931
  N   6.62487104498767     -0.45446237008180     -0.02289369027187
  C   5.69948174399175     -1.29693252758484     -0.18447087509582
  O   4.40285759806323     -1.13137613096078      0.01075619641133
  C   3.92987055485603      0.21754195394024      0.31549298001445
  O   2.72367450748079      0.31237422319600      0.36157839966133
  O   5.99126968633245     -2.54693681453387     -0.57815848106142
  C   7.37200196482146     -2.74895353636134     -0.90024909074341
  C   8.39147387446417     -2.43487634772584      0.20948040358437
  C   9.19688038746899     -1.12273007728479      0.04215739507251
  N   9.05979655361184     -0.15686592245897      1.14123866003245
  C   8.56410401813601      1.17270621490290      1.00546234040421
  N   7.32418544791248      1.59602120122938      0.83959992708448
  H   7.60583330414418     -2.15548417609518     -1.78950167100399
  H   7.40648198946165     -3.80426147301280     -1.16728502720840
  H   9.09041731422244     -3.27640174728637      0.24617382981717
  H   7.87913951888975     -2.40820929340651      1.17150814319703
  H   8.92039304308039     -0.64192697070950     -0.89567402112024
  H   10.25989357371429     -1.38093914482069     -0.02997189757259
  H   9.92940465908570     -0.10499996399813      1.64844456976673
  H   9.26885591053818      1.92637693516778      1.34344848938753
