27
Coordinates from ORCA-job 25641optt
  C   3.88039148695367      2.80505520429717      1.51885169072091
  C   4.57865924514563      1.54952292691064      1.95195000309652
  C   4.82279188797683      1.25703468135333      3.25808949231630
  C   5.49101454622084     -0.07198925422722      3.47505317266917
  N   6.68177186867432     -0.15057369394064      2.61603108435866
  C   6.55337145614849      0.30759915995961      1.35423389325434
  C   5.33062643914381      0.80216766069431      0.96141673070667
  Cl  5.14022652257142      1.21257394240013     -0.72394924387583
  C   7.84555359087456      0.75809432628523      0.66492994965147
  O   8.41384288821104      0.09378003528603     -0.19769704072480
  C   8.21030920251169      2.06672654331343      1.13243649323851
  C   7.47725364124074      2.70679489434667      2.12843396774439
  C   7.42487147600918      4.03061652079890      2.54008869173322
  C   6.56662741510577      4.55862088119868      3.50625953012378
  C   5.55731635889740      4.06547418487235      4.40412324859960
  O   5.09904495894484      4.77600894936246      5.29010459543823
  S   4.69196390520650      2.40672929067057      4.57555560297901
  H   3.30929301488245      3.21889878604520      2.34736975792872
  H   3.22126644054679      2.60554388306014      0.67421036703572
  H   4.61423816956513      3.55050507068403      1.19751338732540
  H   5.78752971020162     -0.23139346219691      4.50858055057320
  H   4.82349757783208     -0.87965834521813      3.15464894857434
  H   7.58995717251590     -0.00991829608689      3.03901218046957
  H   9.01760823293074      2.56045434397410      0.60177896654858
  H   6.78350329060252      2.10308490811702      2.68052585744522
  H   8.08518716047126      4.75025842522740      2.06191357275146
  H   6.68928234061465      5.61798843281237      3.70953454931760
