28
Coordinates from ORCA-job 25650optt
  C   1.11449797095923     -0.15884701174485     -0.47590008090774
  C   2.59657161705052     -0.02167066536135     -0.28927831323175
  C   3.12977105514195      1.25066667664424     -0.08772592353383
  Cl  2.61455337230749      2.65133728133553     -1.03048180496097
  O   4.53810583883208      1.41167864447065      0.12704119631391
  S   5.26604686159900      0.25835567567696      0.88585756980900
  O   4.74232744518723      0.11043056252640      2.19867037790555
  O   6.66133119549089      0.47270773242640      0.69438641631445
  N   4.77802458254785     -1.03204423170575     -0.02188512746756
  C   5.63474037822250     -1.59865377167775     -0.94913942313354
  O   5.29392323252982     -2.39123595743989     -1.78584056464807
  C   3.32014375569346     -1.21855836214606     -0.08415325946621
  N   2.75009724745388     -2.37451820949494      0.08349351549483
  C   3.43850511555894     -3.58043923557698      0.39731691265739
  C   4.58233531190729     -3.57753839849540      1.39876771662859
  C   2.52361554758675     -4.77755846442452      0.44935290066480
  C   3.49208616685637     -4.62595278427833     -0.68802874455644
  H   0.65205262847449      0.81163281497896     -0.64526511187902
  H   0.66721189968313     -0.61985834574445      0.40857640041421
  H   0.89748437640499     -0.81939960108859     -1.31677263422091
  H   6.67077256878761     -1.26399509337881     -0.81568975545256
  H   4.38274852047968     -2.86343166545777      2.20015404260996
  H   5.53947169171619     -3.31890126540059      0.94501597286940
  H   4.69158907356037     -4.57200083040146      1.83649700410766
  H   1.48223017569477     -4.57080402679129      0.24685854403707
  H   2.71747538465829     -5.53930331858014      1.19373469111401
  H   3.10761046679126     -4.32383177080737     -1.65041983659084
  H   4.36267651882376     -5.26926637806278     -0.71914268089138
