28
Coordinates from ORCA-job 25652optt
  C   2.65789304767940      1.29076002568920      0.62404665828590
  C   3.17828165457261     -0.04909077746719      0.11004631520638
  O   3.26022655472933     -0.98360897579214      0.90678233227478
  C   3.54450291736594     -0.15739853654268     -1.28252597327724
  C   3.92609803287843     -1.37131006730372     -1.89471562156115
  C   3.84664698258050     -2.73886515184086     -1.49731877197319
  C   4.09375371053081     -3.51450425780224     -2.61342673352298
  C   4.35483424794461     -2.67527827291992     -3.75167038264345
  C   4.59472458835109     -3.14109689421533     -5.15419098231357
  C   4.27538395765032     -1.37819268642956     -3.28795740830126
  N   4.55329737341013     -0.14620547365687     -3.95922686434058
  C   5.81822802579211      0.11545564309173     -4.50264542907255
  N   6.64104229672716     -0.97783351962042     -4.61638667030113
  O   6.16710421070511      1.21720948252684     -4.87697681028174
  C   3.83580499455324      0.95323653955032     -3.44066225633037
  Cl  3.39282443118089      2.22218289914117     -4.54552945461923
  C   3.38995310263048      0.96822417897294     -2.17203786815751
  H   2.48358345495816      1.19171285773905      1.69296242371624
  H   1.72051921934412      1.56251956972998      0.13288850456231
  H   3.37058255112438      2.09749682199307      0.44392403629665
  H   3.57113183396742     -3.07393964699563     -0.51157714885865
  H   4.05798447860395     -4.59567401753484     -2.65661707729936
  H   3.90500986637831     -3.94986693571981     -5.40821315421819
  H   5.61018231312291     -3.51973759911242     -5.31726505270792
  H   4.44370270816390     -2.32685427486597     -5.86481636915621
  H   6.46123275287118     -1.76424983324871     -4.00836523111936
  H   7.59863792202988     -0.71841556135404     -4.77970328665440
  H   2.83283277015334      1.83932446398808     -1.85682172363202
