28
Coordinates from ORCA-job 2566optt
  Br  1.30877819889176     -0.49788142594851     -1.59116345898289
  C   3.00976311694871     -0.16511227047484     -0.82895484176866
  C   3.87052351010840     -1.25709129117529     -0.61374664375905
  C   3.47802525080893     -2.64423372357470     -0.21545683990280
  C   2.61184264798127     -2.75440352785692      1.06250673330396
  C   3.20565201313260     -3.95314709186834      1.78242181135621
  N   4.63828508920315     -3.72948768695748      1.59511031788915
  C   4.83994135861728     -3.30986740838409      0.19706263985304
  C   5.89244406841886     -2.18017006152309      0.09459571390408
  N   5.09158647169413     -0.98111512205725      0.07113265813878
  C   5.62886137516638      0.27554071431521      0.16249780923755
  N   6.84163599786997      0.57622073545589      0.48344582845002
  N   4.73132119213214      1.27884212048853     -0.10398069933953
  C   3.41207564948672      1.16399625723850     -0.63879691674657
  O   2.80548526480101      2.21470403838244     -0.87778692746060
  C   5.18372612570617     -4.45283895274092     -0.65764464305786
  C   5.45928114766540     -5.41431568734738     -1.32194096123534
  H   3.00270273857395     -3.19133023202914     -1.02905512430941
  H   1.55498503377573     -2.86066774609695      0.82432336732584
  H   2.74893365059955     -1.85330243460229      1.66261645760602
  H   2.85992874946305     -4.88830399453286      1.31678925904838
  H   2.96786123326782     -3.98851939692061      2.84738737223752
  H   5.19477538626675     -4.54737677160232      1.80985173004803
  H   6.47876383870577     -2.27669363526527     -0.82797348509376
  H   6.55268129455237     -2.20965079975706      0.96147698396496
  H   7.38822522558903     -0.26157783331782      0.64441486135756
  H   5.08905131721218      2.21795640752616     -0.04310081234263
  H   5.69486305336079     -6.25417317937355     -1.92903218972200
