25
Coordinates from ORCA-job 25678optt
  C   3.81866591668096     -0.19953622502138      1.04322416221135
  C   2.63584083011964     -0.19513289599122      0.08321175370675
  N   3.00754304606920     -0.60642897863093     -1.26202382140280
  C   3.54865352059394      0.37988439832610     -2.15798450570206
  N   3.79116318689895      1.60419414513593     -1.79806881946700
  C   3.78961895410447     -0.08102510346292     -3.48697165000503
  C   4.28595509944311      0.81193153994902     -4.48276902902800
  C   4.48904781922287      0.27879530419988     -5.73583752816941
  C   4.21822004846585     -1.09083633404357     -6.01017318533048
  N   4.45944548699383     -1.48712917722074     -7.28113294545972
  C   4.90429803712354     -0.50813643106570     -8.01938019569401
  S   5.06748432734942      1.02629075658617     -7.18712964879629
  N   3.75484812766877     -1.94190743518106     -5.05030968879836
  C   3.56204896063353     -1.43077474306098     -3.85596865280490
  N   3.11161781904326     -2.32970456757716     -2.87465227987008
  C   2.88203949372422     -1.88330302414915     -1.72001037883452
  Cl  2.34805601059342     -3.07248720552265     -0.52171391403574
  H   3.51858031976438      0.17986543694381      2.02171458159407
  H   4.62716143809603      0.42172964152938      0.65728594443784
  H   4.19498048205998     -1.21582434687405      1.16545953682960
  H   2.19794772395728      0.80020049648697      0.00594122108601
  H   1.85306765165096     -0.85429632782697      0.44444931550455
  H   3.60892100560731      1.77933153745540     -0.81962004820113
  H   4.47768724997082      1.84295653235020     -4.22757606317285
  H   5.16210744416423     -0.59765699333441     -9.06296416059777
