31
Coordinates from ORCA-job 25675optt
  C   0.88619348377600      0.19513038938748      0.08189620720079
  C   2.40539451772446      0.13544331072519     -0.06658336486155
  C   3.05348769079652      1.33244656339098     -0.67228878513249
  C   4.10089187436897      1.02890537598268     -1.47439192335961
  N   4.95675251818648      1.92371346422251     -2.01057942157268
  C   4.65569985436537      3.19753466804187     -1.70162654192505
  Cl  5.69941463067460      4.41869197940809     -2.41315643826670
  C   3.58337069320030      3.67702651044772     -0.89311871945916
  N   3.18852786136558      4.88832848567847     -0.63817505980585
  N   2.84231155138723      2.64483013929659     -0.26381692264865
  C   4.27836509854876     -0.45893544420274     -1.58604243846697
  C   4.62448858007973     -0.93480836891630     -2.99112823199110
  C   2.97774099654535     -1.02986770794935     -0.93040201687348
  O   3.24977505616768     -2.18583618508255     -0.13606085974838
  C   2.01056075054722     -1.50738626870258     -2.01519591505955
  C   1.89942944440391     -2.99824245505110     -2.23104002141209
  O   1.38746058089866     -0.73347335824827     -2.69545163460463
  H   0.62150930256446      0.93767195335609      0.83776044933268
  H   0.48946203741682     -0.76850339693042      0.41380229101390
  H   0.41084407746051      0.46864864353685     -0.85835659608081
  H   2.80903615657650     -0.02898104894925      0.94992920317883
  H   3.78206256929513      5.54425605979873     -1.13454565684572
  H   1.91514617860567      2.94772918316730     -0.00256378949770
  H   5.10124534458156     -0.77124287251223     -0.92330249710432
  H   3.83308259520054     -0.67629754746391     -3.69600656592807
  H   4.80104734557817     -2.01318064110087     -3.02428971154337
  H   5.52980103252581     -0.41846355736757     -3.31078584563453
  H   3.90994504420136     -1.92993613214779      0.51494547901036
  H   2.89031856546509     -3.43321184886174     -2.36336493721253
  H   1.27259193457099     -3.17995371736970     -3.10040610862504
  H   1.47304263292053     -3.46403617558419     -1.34165362607647
