33
Coordinates from ORCA-job 25687optt
  C   1.47930151021797     -0.65443437217821      0.23014003025437
  C   2.39478208029202      0.52390688134673     -0.10933301239001
  C   2.83568383940081      1.27376614422674      1.11925925393728
  C   2.06513601199103      2.41083542556112      1.52710757273335
  C   2.40282764521524      3.01323052489201      2.76085180165998
  C   3.49461621069869      2.59749008497837      3.49768436447747
  C   4.34229970463701      1.55951193854434      3.06970148646174
  C   3.91118419538420      0.89361129559351      1.87884914218025
  Cl  4.85789430017909     -0.51874931339084      1.40466697631768
  C   3.62949494146933      3.53460297611752      4.67993674044179
  C   4.08117011752566      4.91413635807066      4.10662122521266
  C   2.83921685145341      5.41300526893112      3.30325536678162
  C   3.14653827572065      5.76111748873865      1.85688407156115
  C   1.82859633265644      4.22516337414563      3.46141869524466
  C   2.15803139893961      3.82036554754667      4.87454574570118
  N   1.37675111676124      3.82906414303020      5.86904391496506
  O   2.05389912859737      3.42821074600088      7.05138763669363
  H   1.09735301053908     -1.14038971545438     -0.67227132407692
  H   0.63030847922162     -0.30847208038131      0.82298085348379
  H   2.02213570191156     -1.39572855360450      0.81831783657983
  H   1.85840171734646      1.22206064603681     -0.75897582395542
  H   3.25850972748222      0.16088277524190     -0.66985289878940
  H   1.22281072623827      2.73914156684824      0.93091927536691
  H   5.18614676806192      1.20053060724629      3.63883437311223
  H   4.18526783446580      3.17404709031991      5.54004153359887
  H   4.95125568304218      4.78130451931285      3.46148644180944
  H   4.33939389091620      5.61353592234342      4.90557581108035
  H   2.41431270677721      6.28651890768169      3.80976594129611
  H   3.53830720642589      4.88363916320377      1.33896875750139
  H   3.88798252020648      6.56234760128502      1.79615323767126
  H   2.24699931081428      6.08828000749142      1.32902182367502
  H   0.79028831437832      4.47653746557801      3.25233463738700
  H   1.34210274103268      3.41692956469572      7.69467851202562
