29
Coordinates from ORCA-job 25690optt
  C   4.75006243411696      1.69935040172801      0.57098341125388
  C   3.98440466741130      0.89275430201496      1.61482507057882
  O   2.62437652166158      0.74608674859431      1.25114139424604
  C   4.62084148549242     -0.45984960477420      1.95697695249289
  S   4.85851915502663     -1.47458686063858      0.49058267969845
  O   3.66064976139843     -1.30172477103706     -0.32910312248383
  O   6.09660867373499     -1.01601633196243     -0.12221571706125
  C   4.94611834404195     -3.07810250604993      1.14043746210002
  N   5.65582339595389     -3.10922221561761      2.33125027244620
  C   6.15409731818457     -4.24903421362006      2.73595780231816
  N   6.76617600106095     -4.25671111980090      4.00701897319801
  C   6.08191973005596     -5.45056681820758      2.01749202331351
  N   6.62331727844868     -6.70594039380853      2.44753109708658
  C   5.40259362687819     -5.41483547548977      0.76735221693065
  O   5.29843384919909     -6.57462255168257      0.07134134029963
  C   4.85694825492448     -4.24957617721115      0.31339124589128
  Cl  4.00216171990640     -4.25701191165380     -1.19285032697400
  H   4.28794886547612      2.68251084143140      0.47224507243606
  H   4.72459794040964      1.19547297596322     -0.39486917748222
  H   5.79697862360409      1.81743796475325      0.85619275594156
  H   3.97301411122053      1.46293836749887      2.54902162118874
  H   2.60849195335895      0.07954766285678      0.54468398075373
  H   3.97550522929610     -1.01573873721373      2.63437644043865
  H   5.60236932525920     -0.34202038258443      2.41104659195812
  H   6.97046268435471     -3.30779821658177      4.29007723575093
  H   7.59272490181788     -4.83658081923541      4.04506948802221
  H   6.29233830418833     -6.97923071665602      3.36560290339563
  H   7.63830463642416     -6.73359263327029      2.45516542553021
  H   5.72821120709365     -7.23533680774489      0.63827488673131
