32
Coordinates from ORCA-job 25709optt
  C   2.91165109840339      1.55128261289273     -0.03160325058033
  C   2.59058955446750      0.06940686701699     -0.18421703607710
  C   3.10458856302610     -0.83114906104602      0.96695992008579
  C   2.66333981696114     -0.28609255101791      2.34718863103505
  C   1.15916851345926     -0.18234645309258      2.51400159188726
  N   0.82541398156313      0.27811753859271      3.85884005719254
  C   -0.59852397607482      0.47502652104335      4.03941800425629
  N   2.55628402290551     -2.17163049257862      0.86940023777730
  C   2.91494123086067     -2.97655493484038     -0.06365748915554
  O   3.81577667867981     -2.51825865769787     -1.01850129449365
  C   4.35502192568596     -3.44622297036350     -1.89120714876346
  N   3.85174161813992     -4.66133614830056     -2.03390054670417
  C   2.91307258376637     -4.95759678338856     -1.17060095607802
  Cl  2.22374986045389     -6.57201379071510     -1.31640138879539
  N   2.43104345292765     -4.23056197852426     -0.16311791228439
  C   4.58575008530553     -0.79540717011700      0.98811677735659
  C   5.78123848100297     -0.72639273289657      1.07085865324149
  H   2.63156443336195      2.10046302113716     -0.93251605617626
  H   3.98085608353540      1.69876678642906      0.13491752260944
  H   2.37579087719851      1.99898039704044      0.80800819829529
  H   3.01974040447135     -0.31345368966203     -1.10866393610262
  H   1.51170475976767     -0.08599096678189     -0.24722858056210
  H   3.12859350144760      0.69056926829961      2.51695662013313
  H   3.05081657906817     -0.97067745147620      3.10255161815167
  H   0.71903110574336     -1.16922702931209      2.35973588311716
  H   0.73145168491598      0.48815525422244      1.75063922990378
  H   1.31969390438115      1.14299132079438      4.04661502794050
  H   -1.10512171949222     -0.48828120935829      3.95310411141296
  H   -1.04839245208645      1.15239990501249      3.29626681291562
  H   -0.79917210148025      0.87205000826211      5.03561845959858
  H   5.07484999566607     -3.02139410999977     -2.57007028313502
  H   6.84174545196768     -0.68362131957422      1.11948852199756
