30
Coordinates from ORCA-job 25705optt
  C   1.05562374285859      0.79650623566696      0.65160670487451
  C   2.42098509242481      0.20975706756790      0.27948966683189
  C   2.93278772805881     -0.76723653618782      1.31357970062079
  C   3.66394376859535     -0.26502516919874      2.41615180438934
  Cl  3.97617358107169      1.47310254921857      2.49783588735754
  C   4.20914512879595     -0.97496099603908      3.51408301192363
  N   4.91349076041236     -0.57444643377486      4.51996172871463
  S   3.82912178415308     -2.71608750146954      3.61941307593053
  C   3.10280891431909     -3.11099197988317      2.07230949176857
  C   3.19926952990047     -4.58514553863261      1.74643729370651
  N   4.56334818654700     -5.04833009142198      1.40589678630015
  C   2.67520098299039     -5.43020124646369      2.83405757723686
  C   2.23943885947239     -6.09697419615413      3.73002400720433
  C   2.67449797821922     -2.14498755625423      1.17286797718062
  C   1.91240169412310     -2.62634212718703     -0.05923945784310
  C   2.79316002242520     -3.02091277888383     -1.16041293055779
  C   3.54318953643382     -3.35269681484897     -2.03703243916526
  H   0.70474571500847      1.50881945393861     -0.10015125649742
  H   1.12309953142806      1.31155810969125      1.61085494550555
  H   0.30883664233435      0.00567693427214      0.75395381207478
  H   3.13349820478766      1.02570257277223      0.16903247649596
  H   2.36772554379427     -0.26286147900182     -0.70165415807021
  H   5.06012992120477      0.42969918787300      4.45370156305530
  H   2.59183492088789     -4.80172263367383      0.86784383537100
  H   5.16848413633282     -4.81552022917164      2.18958607701334
  H   4.87663445610913     -4.46379630982742      0.63484352174159
  H   1.85787138763484     -6.67250078422079      4.53750127832554
  H   1.23080884154657     -1.85424411759067     -0.41204425421071
  H   1.27674378114745     -3.47447682882229      0.20104211116423
  H   4.21599962698229     -3.64036076229242     -2.80753983844274
