27
Coordinates from ORCA-job 2570optt
  Br  1.08165055189714     -0.05428179815692     -0.83326975461346
  C   3.03558429607472     -0.03392793076790     -0.67534679318511
  C   3.65826919322910      1.19430725149485     -0.93496850489139
  C   3.36913222478094      2.67392537326783     -0.96070052334314
  C   2.43987320074009      3.41348767989382      0.00846497375763
  C   3.25262296484671      4.70369555739133      0.27338952371259
  N   4.67516519258506      4.31030208180976      0.22871348387008
  C   4.70409861110688      3.22718880677636     -0.43538986228143
  N   5.71317118781833      2.30880799504889     -0.63243720396097
  C   6.88251847564752      2.06969948936819      0.23032320818471
  C   7.08938515819446      0.51938940023073      0.17573188635898
  C   5.72928714896306      0.01316173508266     -0.25510125185122
  C   5.03967663595187      1.07356620315177     -0.71060730802260
  C   4.97156537402182     -1.19755812758628     -0.09433493862555
  N   3.59283709023502     -1.14080498800191     -0.33476624985569
  C   5.54387323364937     -2.39657541413460      0.33605166530878
  C   6.08469209776895     -3.41996072552117      0.71464105844756
  H   3.19109838441220      3.06082940842922     -1.97550880096518
  H   2.34511968730579      2.83770685750857      0.93156503705182
  H   1.44358360460279      3.59736371432961     -0.39200132997569
  H   3.02779982226411      5.15369681578115      1.24122204367628
  H   3.05041157416952      5.46186629290997     -0.49343830121740
  H   6.63991447858327      2.39859455134785      1.24604878364780
  H   7.75041535252179      2.62871213412654     -0.11678100114678
  H   7.39201362405501      0.12637096732544      1.14805602557896
  H   7.87981116717534      0.25781093616325     -0.53601715894967
  H   6.54142966739909     -4.32137426726901      1.03946129329011
