27
Coordinates from ORCA-job 25719optt
  C   3.24679602177723      0.85121881916315      1.13512919918139
  C   2.76689060625236      0.09486744896703     -0.09788154743867
  C   3.04075189370875      0.76916964942622     -1.46054120810743
  C   2.51457252124567     -0.17133976951824     -2.54459910761349
  N   4.51337539600048      0.86718311669472     -1.66407687793856
  C   5.12347350461154      2.01400735144093     -1.05544825158339
  C   6.40379954474501      1.94884141438684     -0.57865527823939
  O   7.09429533950422      0.78091013209810     -0.62823657147288
  N   7.05514924660957      2.99900189135798     -0.04551298356764
  C   6.31443014489684      4.10371342993949     -0.04294043510579
  Cl  7.17311110712108      5.51845849224995      0.61069382547380
  N   5.09801081014651      4.33364978097184     -0.41477003378082
  C   4.41541568219660      3.24291873912040     -0.91783360359424
  C   3.05832338156921      3.28028375653750     -1.26310315948741
  C   2.37177638531825      2.12042186055508     -1.57603166292574
  H   2.87441641087514      0.37039714653515      2.04268488255395
  H   2.89037409655708      1.88189440459381      1.11801115691199
  H   4.33515675869531      0.87536562084100      1.18942275246640
  H   1.68364166930070     -0.04928504171775     -0.02842609263889
  H   3.22625654629305     -0.90066709533826     -0.11988246755954
  H   2.99853155459812     -1.14902597268456     -2.47610067416860
  H   2.69886755304784      0.24971575585539     -3.53564979272227
  H   1.43728965097422     -0.30516622228565     -2.43272171486328
  H   4.66287036424641      0.92757334832870     -2.66876501477696
  H   6.45112776260579      0.13399062522449     -0.96019592752279
  H   2.55568125864595      4.24085159307951     -1.25081296116141
  H   1.32061478845701      2.14104972417713     -1.83975645031833
