26
Coordinates from ORCA-job 2571optt
  Br  1.74915383417932      0.20734052630965     -1.31011325713049
  C   3.20073998756260     -0.13861641666615     -0.12238343243441
  C   3.86768265538534     -1.31570325143972     -0.06808067226592
  C   3.72727745716458     -2.50429311183829     -0.98888529392703
  C   5.13079860984393     -2.72545670248194     -1.59654874179690
  C   5.85190290008414     -3.36026321156637     -0.39717412319489
  N   4.81586249325636     -4.31596349442213      0.02228937307950
  C   3.54529974009853     -3.77934904893791     -0.17964792794711
  N   2.42650278062153     -4.23872945321944      0.20459838910314
  C   6.10874503523567     -2.33743661874316      0.71867087805961
  C   7.33630190511522     -1.41785706003181      0.61085211366615
  O   6.98233382008982     -0.21666495066104      1.29748506309228
  C   5.61244460618661     -0.06702406083115      1.07575861050037
  C   5.02971097871427     -1.29449744910689      0.73878787574309
  C   4.95775631421322      1.15493632179195      0.94879249757753
  O   5.29775764931186      2.31421420014179      1.10161254429955
  O   3.54270540527665      0.93720770590632      0.62002915927925
  H   2.92334137299176     -2.37514996996380     -1.70764771647096
  H   5.58433104226701     -1.79074560151237     -1.92222615055979
  H   5.10191814235485     -3.43520837866628     -2.42499476829953
  H   6.76026905336692     -3.89790526775012     -0.67922736908103
  H   4.96046596677071     -4.81735565314485      0.88708212948734
  H   2.55165027013240     -5.09155348815426      0.75024230021332
  H   6.17455595903999     -2.89713925179013      1.66594253797621
  H   7.53878382796614     -1.18605434182061     -0.44514109408289
  H   8.23970819277049     -1.81773197140126      1.07392707511363
