30
Coordinates from ORCA-job 25711optt
  C   1.25127570399257     -0.07596599152859     -0.57993330258231
  C   2.69869693839338     -0.25579021640286     -0.20696702254879
  C   3.28842583740040     -1.49903108527914     -0.22421530899879
  Cl  2.35757054622502     -2.91894572288637     -0.68448122286757
  C   4.60049805506281     -1.68054944985056      0.27999950170902
  C   5.30338272112425     -0.46625230514421      0.55460922633899
  C   4.67038503984220      0.73705266221448      0.50714011307126
  N   3.34809674474213      0.87933204681778      0.18531454242817
  C   6.76149253356867     -0.83890673693794      0.64912793794980
  C   6.64549752015374     -2.35671544288344      0.87401985527723
  N   5.55627604251683     -2.72246884991353     -0.05331943038672
  C   6.07470835221975     -2.55935045230142     -1.44702814575697
  C   6.39795070852143     -3.93146756068878     -2.02030467048619
  N   5.17191270928790     -4.69604474090638     -2.20719576502705
  C   7.33456532187091     -1.67510622672370     -1.53711059800729
  O   7.42591365683918     -0.60794017575455     -0.60864949299440
  H   0.59161086375052     -0.54912270236200      0.15397542822291
  H   1.02425836993730     -0.52589234581810     -1.54809220339213
  H   1.03518432346503      0.99015460083046     -0.61218933796574
  H   5.20650961913083      1.65875159173124      0.71938650960004
  H   7.34006025438928     -0.29800348225680      1.39865612891170
  H   6.32478814848982     -2.57410187944660      1.89253779832452
  H   7.56616677899541     -2.90110763733802      0.65648815110417
  H   5.26282818254052     -2.12018592683638     -2.03211912135904
  H   7.11084401749073     -4.41118077154210     -1.33242772150214
  H   6.90483869016208     -3.81614177316185     -2.98599892274770
  H   4.57210262357557     -4.52713047937399     -1.40245148436971
  H   5.36302049478520     -5.68919288731163     -2.23878593408243
  H   7.39537900264789     -1.22608629149232     -2.53128026095609
  H   8.21576019887849     -2.32360976745264     -1.42370524690673
