28
Coordinates from ORCA-job 25716optt
  C   1.34814442455637     -0.17372915323901     -1.06422161569400
  C   2.73949119023590     -0.05016889904305     -0.47725576400005
  C   3.33368827906703      1.21450898059691     -0.19043182823081
  C   4.74146238350362      1.15417917618422      0.07513833122875
  O   5.52472969152037      2.28720492418178     -0.00846775306162
  C   5.34983567683547     -0.04418569626910      0.30021379202083
  Cl  7.08254496073510     -0.11142642219976      0.49128364948673
  C   4.60054169099664     -1.25373179719710      0.22945411765284
  N   3.32832081607690     -1.20502934588243     -0.29190307041169
  C   5.13160751650164     -2.49894685150463      0.60210238110820
  C   5.58469365498498     -3.57833133488985      0.92237100788341
  C   2.50016843582813      2.47640869290926      0.09613599962615
  C   3.17162700051137      3.42292093496468      1.12373408217028
  C   2.18659162015654      3.30368044417264     -1.17001242343328
  C   1.22565528805363      2.10969329331213      0.74268143586497
  C   0.20353479329610      1.86786467578125      1.32444846300612
  H   0.96066255231193      0.75867633062719     -1.46833441387928
  H   0.64579181202891     -0.52225143420184     -0.30609304958273
  H   1.38633365024725     -0.92188122842314     -1.85604604841569
  H   5.14331236508140      2.83639696848387     -0.70440244087922
  H   5.98434824768623     -4.52028206598840      1.20450728247964
  H   4.01221900631352      3.95902534637334      0.69020952322220
  H   3.53642977784240      2.85359087625659      1.97787813203278
  H   2.43692168355233      4.15141799323951      1.46828608802286
  H   3.12230358135322      3.66135192107462     -1.60654332470818
  H   1.55824039390630      4.16572781152088     -0.92740348948751
  H   1.68021166094414      2.69816805595488     -1.91965752222560
  H   -0.69541215412764      1.61114780320449      1.82932845820389
