24
Coordinates from ORCA-job 25714optt
  C   0.89656667721432     -0.01365732757717     -0.06027092796195
  C   2.40894116300526     -0.06868104430190     -0.16624276706543
  C   2.96359370695964     -1.34513999176806     -0.75562259757710
  C   2.45791714899519     -2.55276744034167     -0.55372833496440
  Cl  1.78957778851091     -2.87184667789301      1.66307855409534
  S   3.16990727935035     -3.85995272578001     -1.42101856846133
  O   2.52196716876400     -3.94639112305777     -2.70464659116241
  O   3.25370959504615     -5.04855155390036     -0.63111455132466
  N   4.72893252509855     -3.36925515062263     -1.71558654519054
  C   4.99318326235340     -2.12034360112248     -1.83632274737884
  N   6.22863236316001     -1.73713794940535     -2.35235566518839
  N   4.15703467774050     -1.09303195830176     -1.50865010881958
  C   4.54274000575827      0.28667934021979     -1.66216318891292
  S   3.03203266964184      1.19241125845201     -1.27853517893708
  O   3.37827617698114      2.41711873891057     -0.60288177736961
  O   2.22481445832330      1.24780266287960     -2.46719139828808
  H   0.58332748721367     -0.82297498546342      0.59701736856709
  H   0.45268212421854     -0.15511884019415     -1.04406214208642
  H   0.57527881144406      0.94337614795724      0.35291086021894
  H   2.88412556293907      0.14128466955353      0.79755479522256
  H   6.81667269630532     -2.54897939299537     -2.47444651204275
  H   6.69665722736909     -0.99161794556348     -1.85699155899496
  H   4.84022908304541      0.52818929709609     -2.68197316811046
  H   5.30020034056188      0.61558559321979     -0.94375724826700
