30
Coordinates from ORCA-job 25722optt
  C   0.88061839405709      0.45557866752407      0.47402336435601
  C   2.36671768911673      0.24585435066747      0.20492500718053
  C   3.01563239978127      1.42792599008622     -0.50864117340466
  C   2.96042071965614      2.75181798308807      0.32249206861212
  C   4.23640487179342      3.53434825125422     -0.05000703191941
  C   5.14971890360178      4.15083696742537      1.03338424682540
  C   6.60668579841572      3.94323541779946      0.47690553202222
  C   7.57894761017088      3.83550854616564      1.56758412873780
  N   8.35842812801279      3.74784703900358      2.40786796621718
  C   6.49544461872981      2.68841250570324     -0.39822841531492
  C   7.31020559885596      1.50509829084239     -0.46089600194156
  C   6.69967105868198      0.31562183648836     -0.78164047474146
  Cl  7.73132666270402     -1.10968778629845     -0.94076101002608
  C   5.31014790613491      0.10425426326316     -0.98366943715289
  C   4.50191419989798      1.25651167854284     -0.75027363554587
  C   5.11714437704844      2.44473758563624     -0.53987411822905
  H   0.42984658175350     -0.41514899402159      0.95412443099107
  H   0.34261360498057      0.64047438044527     -0.45930321929233
  H   0.71619766385872      1.31748502501272      1.12429545438045
  H   2.50899755948392     -0.65468932431726     -0.39877763133520
  H   2.90122974487685      0.07378956139953      1.14452349845757
  H   2.47404856077542      1.57300431697100     -1.45827463294227
  H   2.99826535845781      2.48389776784448      1.38470325985284
  H   2.03676185527205      3.31454297240903      0.15714158347928
  H   4.02694950472097      4.28635530149659     -0.82386143426795
  H   5.05235372528770      3.56246567924748      1.94865887023135
  H   4.94821677500246      5.19779075137546      1.26953321444019
  H   6.90418717966095      4.83204467830015     -0.09488304059581
  H   8.37727031479570      1.52311275673510     -0.27904384085216
  H   4.92263263441439     -0.89102646008988     -1.14102752822237
