28
Coordinates from ORCA-job 25728optt
  C   2.31703585764439     -1.59385221018138      0.91955781570809
  C   2.31634001129926     -0.20357634447557      0.32426928821550
  N   1.78868624339001      0.03430108384991     -0.87670461476711
  O   1.18478299967102     -1.13611447104993     -1.41242349201370
  C   2.93691671381867      0.84342779807714      1.05265870512169
  C   2.93880813256216      2.24321054184849      0.81581609675292
  C   2.13800925892228      2.87956146369891     -0.29390550595471
  C   2.98526309376715      3.20401637144758     -1.51532776396745
  N   3.63636519228086      4.41415402819203     -1.42170228825585
  N   3.10449020557193      2.47325260496277     -2.55437767199300
  C   3.64977765164153      3.15410407206159      1.64729237598764
  O   3.68075892566546      4.39567704052709      1.47369162312748
  C   4.36792189013727      2.56573100893503      2.78112851304385
  Cl  5.26993280147105      3.57191449228136      3.86673920830944
  C   4.34849027822924      1.23449276099442      2.99572965063316
  O   4.99402068073244      0.59495575040501      3.99816044317018
  N   3.65524550651013      0.40921601736199      2.18987705020309
  H   1.62899105095639     -2.23448557286236      0.37883476790711
  H   2.01184771083602     -1.57664886624456      1.96902696208261
  H   3.30764436789105     -2.06377151382800      0.86436640971114
  H   0.89102822098347     -0.81733002387583     -2.26801919248895
  H   1.73537381995869      3.82061880018621      0.08916801235807
  H   1.32374351925147      2.22990822435561     -0.59618697640062
  H   3.79801503898106      4.72698028829932     -0.46692341179515
  H   4.40534381306844      4.51342568025857     -2.06594957091028
  H   2.56056957988722      1.62500370171718     -2.41150870262664
  H   5.46317930947565      1.27076660103419      4.50642137151154
  H   3.80141812539561     -0.57393932797680      2.33829089732998
