33
Coordinates from ORCA-job 25730optt
  C   0.91301619125581     -0.31607305776547     -0.44973514655896
  C   2.36816135266113     -0.14432878476602     -0.06837982736188
  O   2.96875133250352      0.72060883013468     -0.99342770346895
  C   4.37041189051585      0.91279136063062     -0.78440081234793
  C   5.15242941329007     -0.16978661556887     -1.51105575977852
  C   4.71586725180543      2.31694017649083     -1.27349656620905
  C   3.92673790275281      3.37592576843681     -0.49987278928363
  C   6.21751760501400      2.57984747061338     -1.08127628317783
  O   6.75614015892443      2.06271142917288     -0.09193995321892
  C   6.89955344918072      3.43489404225458     -2.01161960329237
  C   8.27384208740382      3.71709590119813     -2.01696566860107
  Cl  9.38192790106774      2.78891950505709     -1.02643175702376
  C   8.88271616217662      4.69045666231036     -2.80099727454698
  C   8.24395645034894      5.54523811759902     -3.68139797271746
  C   6.85248345432076      5.49905602298028     -3.98699190154348
  N   6.17973357799989      6.25294176590298     -4.78763009861263
  S   5.88196607109791      4.20449186763247     -3.25381946036233
  H   0.40292804076493     -0.96949111695860      0.25997158978657
  H   0.83330057684865     -0.74990684471215     -1.44667583073330
  H   0.41131326759482      0.65202878840574     -0.45821889610308
  H   2.87530562472149     -1.11852192173123     -0.05805054326356
  H   2.45288796546423      0.27541108706219      0.94385912103697
  H   4.58305696608783      0.86326005074912      0.28931666635832
  H   4.99607082004265     -0.07610254818984     -2.58754357910167
  H   4.82244488282328     -1.16289789718885     -1.19960193898914
  H   6.21470767127214     -0.07309117228961     -1.29288291178436
  H   4.43740473336269      2.36281313736597     -2.32976289162034
  H   4.21472181230156      3.34472906576396      0.55371710215153
  H   2.85516717073397      3.19261087247667     -0.58121049544747
  H   4.14319031382287      4.37199206750073     -0.88695687258466
  H   9.95578352026340      4.78952154783161     -2.69149397377470
  H   8.82454582370089      6.29978300226701     -4.20062283753816
  H   6.81495855787497      6.92613141933342     -5.21540513028717
