24
Coordinates from ORCA-job 25747optt
  C   1.52202143816040     -0.43350773352923     -0.57511414083115
  C   2.86150979984547     -0.00622298936185     -0.06153102048233
  C   3.09381347094857      1.32531566604959      0.45194256397358
  C   2.02128538966379      2.34776261930807      0.40658107983193
  N   1.79384459898932      2.88653318500436     -0.95610216213323
  C   2.66764739295704      2.91114070542578     -1.97496595477244
  C   2.03621102454333      3.54565690391451     -3.02708273027960
  C   0.76657133035348      3.86523823606542     -2.52186448556216
  N   0.63094789518648      3.46078285178002     -1.26417417390914
  C   4.40020967441984      1.55317365834244      0.87720950403546
  Cl  4.83663319612112      3.17587527808648      1.45497482365715
  N   5.39566240368609      0.71525273203296      0.90832910838846
  N   5.15736283860613     -0.57573025582464      0.47131147205243
  C   3.94147536715298     -0.85799811128416      0.01470509850101
  O   3.80591545707536     -2.15525838105413     -0.40833342019601
  H   0.77915074423419     -0.51957317490422      0.22874601969601
  H   1.59603967614118     -1.40565090535530     -1.05969868060108
  H   1.11866675824164      0.28309412602470     -1.29888969612142
  H   2.24646179648564      3.19113525555269      1.05692950899004
  H   1.05300118325612      1.93583497089409      0.69711418942436
  H   3.64491634678049      2.47067019485673     -1.86649719216092
  H   2.43389348801558      3.73442580733439     -4.00911454265305
  H   -0.05475431203468      4.36208556083251     -3.01485381549057
  H   4.68751304117035     -2.52803620019126     -0.27062135335732
