29
Coordinates from ORCA-job 25744optt
  Cl  1.40622019316125     -0.22857223021049     -0.61563602123542
  C   3.11756767128950      0.00408021886237     -0.30101085469316
  C   3.61354704182967      1.25596446389869      0.18062690345823
  C   2.74702388838148      2.36921738059825      0.39626927227732
  O   3.06211226654286      3.51876248687168      0.78609296588068
  C   5.04063831107397      1.24317291891837      0.39379959208123
  C   5.77308418760334      0.10481502435124      0.10190678875670
  C   7.27320652581298      0.13728443511324      0.24806572370192
  C   7.96495081716659      0.97149828562690     -0.84593195133363
  N   7.37934764444887      2.25166923018068     -1.19380521513392
  C   6.34972982826363      2.35022119543859     -2.23467204725450
  C   5.74121329739375      3.54593445162212     -1.47897542102845
  C   6.61044418125270      3.12262799780367     -0.27390975278410
  C   5.80410842235146      2.46571208792441      0.85099331410042
  N   5.26290501559676     -1.05181466040474     -0.36717244158468
  C   3.93117407899857     -1.06546111347866     -0.54987664103935
  H   1.68868228769496      2.16438865185229      0.18315845053933
  H   7.64197876685395     -0.88719971255329      0.18464878133060
  H   7.55322540442249      0.52676832522508      1.22924901586241
  H   7.97607340147577      0.38519657184962     -1.76988918138722
  H   9.01326453968169      1.11591851125013     -0.55552373776268
  H   5.67425247686933      1.48890565681381     -2.28002311533735
  H   6.75119363617932      2.54493142648797     -3.23472606191236
  H   4.66847619431637      3.52227322452367     -1.29925964746535
  H   6.03313886895501      4.50720164755231     -1.89864983350890
  H   7.22869897114192      3.91767160445579      0.15803385802161
  H   5.11270406289923      3.21473502063288      1.22951781076336
  H   6.48321298451134      2.19619421995956      1.66519742405265
  H   3.49482503383119     -1.98709732116618     -0.92149797736540
