30
Coordinates from ORCA-job 25745optt
  C   0.42799500528219     -1.06859644532438     -0.48693217643111
  C   1.88497113457876     -1.11036106457829     -0.03725814131230
  C   2.89396711640002     -1.04148038962655     -1.17977782829056
  C   2.80384729925394      0.30711481431560     -1.97201693612910
  N   3.81651999749069      0.58779367466761     -2.97953632640335
  C   5.17274215173498      0.95229354361447     -2.66963706962480
  C   5.63475034109269      2.25633373275637     -2.98668256557243
  Cl  4.47465876045048      3.39524361922253     -3.64423110044076
  C   6.93227646776427      2.78764328434885     -2.79370659624204
  N   7.40763106477457      3.96967736220070     -3.03494695363073
  S   8.20067988961624      1.71318049990372     -2.10333883676496
  C   7.37107612449013      0.20231055342756     -1.81192408822716
  C   6.06363116192056     -0.01079587737459     -2.11100021652109
  C   5.31801544073711     -1.25761472043645     -1.79391200166210
  N   5.29609279151824     -2.13607978715975     -0.61857048234005
  C   4.32364745965107     -1.04326162133969     -0.73887838131284
  H   -0.25195706919404     -1.22524302530973      0.35242344612806
  H   0.23085314665103     -1.84811600312796     -1.22706893457024
  H   0.17717988928438     -0.10997368873708     -0.94212970084266
  H   2.06729960998382     -2.02899899367262      0.52745526189706
  H   2.08185915187890     -0.28125195598768      0.65149977675048
  H   2.71963088640896     -1.87693956881177     -1.86830201040545
  H   2.84375799529480      1.12082625512328     -1.23894696628010
  H   1.82740304948621      0.37015218808044     -2.46131681956743
  H   3.73322098525288     -0.02159286947768     -3.78253940926600
  H   6.67167814495302      4.55114241250698     -3.42844846437257
  H   7.98816618054387     -0.57176316190740     -1.37487470261603
  H   4.95326756218274     -1.79637681148401     -2.66313615201860
  H   5.99896694547361     -1.85625617075970      0.05930896640938
  H   4.55717131504381     -0.17900978505280     -0.12057459034048
