24
Coordinates from ORCA-job 2574optt
  Br  1.12844855195572     -0.36821744891557      0.46396083028961
  C   3.02004476755396     -0.38844656044833      0.31365229306663
  C   3.74860925201934      0.80081701672714      0.47266116901498
  C   3.41961593728806      2.25864685910550      0.46367787606874
  C   4.77157940188479      2.78520974096889      0.93266763698380
  C   4.62298771323548      4.28183324077917      0.75125400121052
  N   3.22072245194418      4.41294082304422      1.18598006371636
  C   2.54232251324774      3.18129339574900      1.27325989842192
  N   1.45602281810849      2.93789294925276      1.87380818617243
  O   5.73510532201221      2.00732542589789      0.27179847153936
  C   5.14229791976221      0.73785846876906      0.24506945340895
  C   5.84956090572333     -0.40030841022832     -0.02862186732071
  C   5.10227599975354     -1.61316089668800     -0.10526833103029
  C   3.67500476194885     -1.56714328478517      0.05754767766234
  S   3.12000703279101     -3.18979729379995     -0.11798878239340
  N   4.72029213514810     -3.80626116596919     -0.37560078827720
  N   5.60282701262659     -2.82709926898221     -0.32900358900973
  H   3.27716083832933      2.59708596635861     -0.57922745282716
  H   4.83969182476162      2.58244722926035      2.01177474137127
  H   4.75148340241096      4.57677651704943     -0.29368828869737
  H   5.28528207250929      4.87859195864255      1.37853641761193
  H   2.97066560027601      5.13674553440589      1.83909956710122
  H   1.10282415089737      3.77390845409044      2.34181801955500
  H   6.91916761381179     -0.39293925028420     -0.17716720363920
