29
Coordinates from ORCA-job 25756optt
  C   0.77926560046654     -0.23222820504959     -0.26940136198576
  C   2.27399560094234     -0.06337293216926     -0.02728963436767
  N   2.91606457706742      0.28741064917779     -1.26350938242814
  C   4.20475756694059      0.43146941490518     -1.34966968402211
  N   4.61763887153627      0.78138621878938     -2.64580252650005
  N   5.83741924589186      1.25942319598365     -3.05624174143452
  C   6.77397150861389      1.09669595084192     -2.15528767389073
  Cl  8.38004111133017      1.60501390644188     -2.66039624096222
  C   6.59380900699905      0.59757865792816     -0.87953051017930
  C   5.28396132052394      0.28567990520049     -0.42002491236305
  C   5.16746201808496     -0.31891627098006      0.94067174208111
  N   5.13669745951776     -1.78817231726933      0.90321392321058
  C   4.61357634874731     -2.55348858048108      1.87809191908413
  N   4.68978413791553     -3.82400700500745      1.93131327654137
  C   4.00861190770987     -4.47293745017004      3.02237173868227
  H   0.24887309796694     -0.49162025289034      0.65059648868353
  H   0.61128601721957     -1.01892300035704     -1.00685938986648
  H   0.36155058640740      0.69290347710357     -0.67050244919044
  H   2.66115656167753     -0.99929842162763      0.40299155673103
  H   2.41035900303482      0.71781670124574      0.73824856021971
  H   3.85665291160024      1.02208985161121     -3.25837425381663
  H   7.44458640685449      0.49672438946625     -0.21867010602151
  H   4.27751312952614      0.00136352573730      1.47985274478692
  H   6.03351454190837      0.00731708009989      1.52855719663919
  H   5.61436733632491     -2.24298664953736      0.14037307120406
  H   4.08245680299203     -1.96949779094014      2.64391252654007
  H   3.23997088000733     -5.15252413408119      2.64234754684296
  H   3.52173974096362     -3.76906291950913      3.71424405459751
  H   4.70991670122897     -5.08183699446271      3.60077352118416
