30
Coordinates from ORCA-job 25754optt
  C   3.00371594800406     -0.37827210843329      1.20335874299287
  C   2.70473877562964      0.81539166762511      0.30533101170164
  C   3.30235991638889      0.66798371498459     -1.09337383035532
  C   2.83046900186866      1.80184721467571     -2.00780001767029
  C   4.82657901398455      0.63199910698354     -1.09155661274190
  N   5.36983693459975      1.33548699500289     -0.11661510278441
  N   6.76479422481966      1.31567359411050     -0.06966772489583
  S   7.55003466857817      1.55150626689465     -1.53978903297053
  O   7.10735101791673      2.80538588640934     -2.10170209673925
  O   8.95853631515165      1.40201503079957     -1.27938881681981
  C   6.86987361171910      0.23413118001207     -2.39309332475112
  Cl  7.98008697420834     -1.00314017407436     -2.96755389999687
  C   5.51737265266726     -0.04033827902725     -2.13543914802427
  C   4.81872520983821     -1.06477244724433     -3.00204075168158
  C   4.64049750404037     -2.41126238538862     -2.29751844339566
  H   2.56216597290017     -0.25367713309214      2.19458767329243
  H   4.08089914599028     -0.49823116605583      1.31952061982674
  H   2.60271801796579     -1.29959961859371      0.77157490751881
  H   3.09829299306238      1.72644947680878      0.75876202992492
  H   1.62115978218344      0.93924883748719      0.20329112496735
  H   2.93242456797361     -0.27765561679221     -1.49994212696848
  H   3.19567921251867      2.75486832009177     -1.61934133298786
  H   1.73884739667658      1.83891670769196     -2.06503343916261
  H   3.23159014142416      1.68336140334368     -3.01594304549692
  H   7.08622883647111      2.00775849129457      0.59979100313804
  H   5.41216126147136     -1.21335365452378     -3.90493404155199
  H   3.84679799700414     -0.68979858775006     -3.33505644224323
  H   5.61509331801089     -2.80748730635660     -2.00836228999115
  H   4.14577750491754     -3.14134002633987     -2.94424034869113
  H   4.04719208201477     -2.29809539054389     -1.38782524344257
