29
Coordinates from ORCA-job 25750optt
  C   1.51582073089564     -0.45810588862534     -0.18045427796608
  C   2.92013047462999      0.12837881821207     -0.00380342089813
  O   3.80279345436787     -0.52302931501271     -0.94931767102117
  C   2.99039154969622      1.61318289354450     -0.32118447151711
  C   2.37825434897819      2.17055255535848     -1.57658390330185
  C   1.82360119020482      2.53215893690998     -0.22582129922396
  C   3.41117248971613     -0.15762031202512      1.40475913979161
  C   3.77320330230472     -1.41884258117064      1.78808594822262
  N   3.79036352555580     -2.58649396665691      0.98580396798161
  N   4.16790552223815     -1.70321022046124      3.10674666178207
  C   4.07736143946560     -0.73474597141091      4.16124331879677
  N   4.32937741446911     -1.09138778361305      5.39159404128043
  C   3.70722938706307      0.54744908116641      3.72450600913615
  Cl  3.64764690709190      1.82516509972943      4.91114856582075
  C   3.37047356089760      0.85811285065816      2.39583709934548
  H   1.10505120504933     -0.26064272175381     -1.17587597154142
  H   0.84195996261820     -0.05503267813706      0.57485155481104
  H   1.57409458965358     -1.53688317982418     -0.03697221434202
  H   3.56953054044767     -0.18184053462178     -1.81916261566793
  H   3.94726011026810      2.03710669746886     -0.04400137611001
  H   1.77484184155899      1.52280841618978     -2.19972907745321
  H   2.93753019800675      2.91934207523467     -2.12075221318496
  H   0.87000783578469      2.10375725913510      0.04822023189125
  H   1.99560299665511      3.52949962119818      0.15429437684336
  H   3.78052774752956     -2.33498559825303      0.00529401672865
  H   4.64815357556525     -3.10326532683453      1.16527953192227
  H   3.84165709111486     -2.61320043742691      3.41852880404119
  H   4.64175549331983     -2.06003500340757      5.40030942167516
  H   3.05930151485319      1.86280721442916      2.15615582215742
