23
Coordinates from ORCA-job 25755optt
  C   1.36854505880363     -0.22712954845636     -0.65257103031209
  C   2.67731993696284      0.16407466263608      0.03272981567116
  O   3.12950032646604      1.27923260769411     -0.26830344808820
  C   3.27465159918735     -0.67593204389048      1.04760558673743
  C   4.06809188809278     -0.11931496830533      2.10547325137178
  N   4.24513593660297      1.27134005344752      2.26265643417000
  C   3.08504910887649      2.11852833010141      2.36101619258050
  C   3.92387384189536      1.84125910634076      3.55535006999166
  C   4.73661243203826     -0.91141618936831      3.07719114967283
  O   5.46873950166674     -0.52122800577543      3.99596511752969
  N   4.49139262926421     -2.29457767726653      2.99424520370528
  C   3.79336732656884     -2.87384517156012      1.96907148319210
  Cl  3.83046632137085     -4.60225006705128      1.98658627666395
  C   3.18966655445383     -2.12633764112934      1.02295129861495
  Cl  2.49670641859707     -2.98320695108054     -0.32426667037874
  H   0.80057056196542      0.69885224138561     -0.74803269270960
  H   0.78081122509862     -0.96096996123604     -0.10572725699722
  H   1.55212388440349     -0.61042672491677     -1.65845930443870
  H   2.11663752543269      1.62970644451002      2.31503942337700
  H   3.14963637538980      3.05492789580873      1.82317047749969
  H   3.52412164575023      1.16885026538957      4.30514979322693
  H   4.62807336078382      2.57507959362782      3.92626903596437
  H   4.98790654032860     -2.86621625090510      3.65688979295523
