23
Coordinates from ORCA-job 2576optt
  Br  1.24931986921956     -0.89070955058063      1.30108749717522
  C   2.62518413448107     -0.05215191182653      0.08529660128382
  C   3.16202730772759      1.21831626820635      0.44853939374703
  C   4.55463151354465      1.32181959055276      0.31462192036530
  C   5.42560943993539      0.37872883279175     -0.11208749579582
  C   6.80712524396994      0.95623628526579      0.02780889998138
  N   6.62445528789189      2.30400475222927      0.59074320470960
  C   5.36760717315729      2.45806361542712      0.72957836866011
  O   4.78637490437883      3.52295484145356      1.30216087823381
  C   3.37928085669084      3.67443657674350      1.03635913278576
  C   3.21027835734057      4.50041847128869     -0.16488669552154
  C   3.09187265399113      5.15092699525765     -1.16336712635163
  C   2.48579254192365      2.38922802969929      0.88195453063238
  O   1.29652465837771      2.55874260659505      1.10387128142365
  C   4.91467194579281     -0.90719685976899     -0.50931311725367
  N   5.54417045726596     -1.94063111204941     -0.95201623822793
  N   3.52515295146626     -0.99195002938465     -0.39243864340751
  H   7.34433812989347      1.03557987916179     -0.92325292324483
  H   7.44207577017448      0.37339079426893      0.70331224813148
  H   2.97816881791548      4.20409800113924      1.89885123709183
  H   2.98273141564182      5.72243528914791     -2.05257901172332
  H   6.53660911872194     -1.73154755840767     -1.00873554231357
  H   3.15099745049741     -1.88619380721084     -0.67550840038156
