32
Coordinates from ORCA-job 25762opt
  C   0.98254288200562     -0.04308622388501     -0.11714207034622
  C   2.50663203073116     -0.04564872809752     -0.09968442386273
  C   3.04147696565398      0.25911589897517      1.29810099748972
  O   2.57948439250521     -0.74528248540646      2.16389106053605
  C   4.58591324500980      0.45814565882531      1.32514191268542
  C   5.30501885118690     -0.78788202462206      0.80325756148028
  N   4.87323925871074      1.58568050361635      0.42739838011110
  C   6.28553463966864      1.81702612286011      0.15864256136687
  C   5.00408403354925      0.79552141806015      2.78026890283923
  N   5.18325602697762      2.06747367805369      2.98908693427084
  O   5.45503837414787      2.38362720859993      4.37703184197748
  C   6.32223890758877      1.53696070465447      4.96348343043052
  Cl  7.65203001183673      2.29969609121419      5.78443369209269
  C   6.19241269957806      0.21409180529501      4.75703327517035
  Cl  7.20970820248571     -0.94685478077134      5.54889273316141
  C   5.23082462327259     -0.22758719883468      3.77859585111981
  N   4.68218450600278     -1.43492286043280      3.67946875205868
  H   0.59393900530945     -0.29798454152120     -1.10550783242368
  H   0.59562659524333      0.94348103240370      0.15080695980062
  H   0.59606905221128     -0.76140715853838      0.60554814483894
  H   2.90383913810618      0.68282720579342     -0.80666014742152
  H   2.87127701227699     -1.03416108423691     -0.39190105826574
  H   2.62490739535519      1.22953252326590      1.61901301288957
  H   3.30288654206558     -1.10574802340776      2.75130393611695
  H   5.20932619895347     -0.82012220503627     -0.28328801239606
  H   4.87447427543134     -1.68561093036840      1.23784636326289
  H   6.36407486855051     -0.76657595062645      1.06418773524975
  H   4.50653215685613      2.41852031529275      0.87541692984067
  H   6.67116166973191      1.04916407298070     -0.51350703802596
  H   6.90847518705820      1.83919609830859      1.06124333568971
  H   6.38727545158802      2.77845037822404     -0.34643534644650
  H   4.99951580035086     -2.03963652063825      4.43003162470884
