30
Coordinates from ORCA-job 25770optt
  C   1.22789899064738      0.31779942169246     -0.26337494260408
  C   2.71110553927756      0.01026761556899     -0.15442744080022
  C   2.94735303970401     -1.39931237817120      0.36224676713668
  C   4.39285111663165     -1.88063776230227      0.29743627765324
  O   4.82878611101805     -1.98741433190542     -1.04651638835222
  C   5.40900646907306     -1.03420528353188      1.11423102112849
  C   6.70628213193777     -1.84062011567740      1.21506371606568
  O   4.88544077151177     -0.89290182534318      2.45657765760589
  C   5.62164639176185      0.32632571436103      0.51202795765449
  C   6.92411373511553      0.87503704428857      0.32083140350285
  N   7.21874892225155      2.11506909417033      0.02103857621487
  C   6.18274726174326      2.97598766768774     -0.13728205695341
  Cl  6.60145562341017      4.69900779193301     -0.13473216807688
  C   4.84897470807653      2.61828329813671      0.18513771717929
  C   4.57337196259370      1.32211497115634      0.49058547174397
  O   3.25870790550808      0.98006080631135      0.73036804662296
  H   0.73769185772803     -0.37550968171109     -0.94900438985796
  H   1.08185527312658      1.33644846567986     -0.62281362271984
  H   0.76011078965264      0.22926112644716      0.71969773381344
  H   3.17891247016499      0.12602423179698     -1.13964830091576
  H   2.35272898607108     -2.09562629225090     -0.23720186599871
  H   2.59006723920402     -1.44276573794438      1.39425189591156
  H   4.41561496933372     -2.90039484849585      0.70439724968226
  H   5.26108137054139     -1.13567770309634     -1.23833214641066
  H   6.48163487053592     -2.82178489887335      1.64355462516818
  H   7.41017203274319     -1.33269660462635      1.87229531006289
  H   7.16622166159748     -1.99720232285220      0.24002696596036
  H   4.77788686750585     -1.77843209947239      2.82569950735119
  H   7.78551980691018      0.21895013153072      0.40735216973635
  H   4.04601112462286      3.34154450549297      0.13851325249509
