27
Coordinates from ORCA-job 25777optt
  C   3.63196454925498      0.53341353822872      0.63865400382105
  C   2.42736683862762      0.00729028936409     -0.15188174435042
  N   2.02744689995540      0.89282482592699     -1.24567563918585
  C   2.77300657664174     -1.35400388774520     -0.71613053742766
  N   3.44082222228446     -1.34471707761091     -1.89167622738331
  C   3.83602050766270     -2.52668863462120     -2.39309981698844
  C   3.56208024095781     -3.74864534523643     -1.69401259845541
  N   2.88576726051266     -3.74488033904350     -0.50832386012834
  C   2.52259146421344     -2.54327812798579     -0.06755199160361
  Cl  1.68093907671399     -2.55349628215161      1.47655061805187
  C   4.01278069055081     -4.95682621541855     -2.24089455329464
  C   3.78456990754550     -6.23702181226306     -1.48366098455966
  O   2.43632936531839     -6.44139938117667     -1.11100139071822
  C   4.70266304267534     -4.92332188665843     -3.45181505855695
  C   4.90611874430470     -3.68491608393587     -4.03363248408671
  Cl  5.79091900884419     -3.63563483630498     -5.56148516638699
  N   4.50958003375159     -2.52917494054564     -3.56460992774254
  H   3.42574226962555      1.53242551184970      1.03348767762472
  H   4.50131807774978      0.58692259189586     -0.02012139596141
  H   3.86592495040720     -0.12684734437674      1.47645051692409
  H   1.58494321081342     -0.09956314214547      0.53184271645866
  H   2.62162801572337      0.68093386150652     -2.04374165361645
  H   2.18858608620703      1.85862118393787     -0.98600838730607
  H   4.42179152352433     -6.23344083326085     -0.58792964593281
  H   4.08018205354817     -7.08831253909139     -2.09952909517754
  H   2.18931689081093     -5.63419649231670     -0.62854926642506
  H   5.06860049177484     -5.82506660082071     -3.92265410759227
