29
Coordinates from ORCA-job 25787optt
  C   1.42228840620181      0.39282833670492     -1.23100754511696
  C   2.66276068941455      0.21455336961542     -0.41133893490207
  C   3.21232345837527      1.26353478198026      0.36942427492528
  Cl  2.43285976917010      2.83669936918565      0.36649133416318
  C   4.40459764068605      1.11461730604948      1.05691472969054
  C   5.03263608828065     -0.10715362449883      1.04938123002963
  N   4.42269947281179     -1.22930107409354      0.45099819762528
  C   3.29774194057192     -1.04507383195699     -0.41949754337260
  O   2.94409834076945     -2.02713758697048     -1.10521157026002
  C   5.24748757923823     -2.41866358045525      0.24299713274755
  C   6.06403184280480     -2.30119517582141     -1.04716013638667
  C   6.16473592468708     -2.67426917905768      1.45260839233040
  C   6.45469614744737     -4.16460389910671      1.36452525804917
  O   5.34365613376824     -4.75061448391249      0.71396228068696
  C   4.44351427411651     -3.73161758398727      0.25122084184671
  H   0.56411429600129      0.68397737859701     -0.61436682937268
  H   1.19241566769386     -0.54693029332572     -1.72953843415894
  H   1.53719348527198      1.17382529959226     -1.99075505968158
  H   4.85253608546313      1.94348899521165      1.58712217318680
  H   5.93801458049946     -0.27703146065956      1.60596750625231
  H   6.70500512156434     -1.41769358608239     -1.00192816917904
  H   5.37896847814461     -2.20342074403139     -1.88913233267470
  H   6.68508267821366     -3.18799244843770     -1.19617678382291
  H   5.61196282574754     -2.43897883017481      2.36411492311021
  H   7.07678445899709     -2.07728113101675      1.43154467474119
  H   6.58513939555363     -4.62122793784208      2.35006707208659
  H   7.36078914763213     -4.36355595788033      0.78022927147380
  H   3.59286141569448     -3.63851566588781      0.93105556107252
  H   4.08400465517862     -4.01526676173731     -0.73051151508998
