25
Coordinates from ORCA-job 25781optt
  C   1.16008488514760     -0.14423317954840      0.08299579225364
  C   2.66220416124596     -0.11233634988818     -0.00765977520827
  C   3.33712851801983      1.08826916562441     -0.01885223377894
  C   4.76131775869695      1.13812949319667     -0.16334354701369
  Cl  5.63047824584509      2.50958663328299      0.66533987308263
  C   5.36442795790080     -0.13534245154456     -0.13854613323976
  N   6.76566852732556     -0.41039236117240     -0.22397987381614
  C   6.86886019499644     -1.85444449597298     -0.19062464306946
  C   8.13855579473740     -2.47336424825290     -0.62993666911412
  C   7.84097607950672     -2.39619049292621      0.85618336938477
  C   7.55612427667247     -3.60886150447775      1.56369192519754
  N   7.32888231673674     -4.58502835984913      2.12576557815071
  C   5.48899004044900     -2.47511053085095     -0.37148611750084
  C   4.60026365286098     -1.27205561392973     -0.16210158961349
  N   3.25417993264869     -1.33113618398716     -0.10143387606603
  H   0.74179860437989      0.85748046578253      0.18755919839604
  H   0.85237716298853     -0.74956740257150      0.93861515003002
  H   0.73669888513207     -0.61291573247505     -0.80940456993318
  H   2.77839229484939      2.01444237579462      0.04729948054418
  H   7.16465911086263     -0.01270493186251     -1.07163078557414
  H   8.92635461600471     -1.82503786362146     -0.99031512780230
  H   8.09264668390219     -3.45401129872716     -1.08358734537034
  H   8.35752468643832     -1.63744523937740      1.42615323331328
  H   5.29648118284475     -3.27453430854685      0.34637142746328
  H   5.35792442980714     -2.89319558409886     -1.37807274071538
