26
Coordinates from ORCA-job 2579optt
  Br  1.07471657018700     -0.21586353797793     -0.42689644319798
  C   2.90434379093369     -0.11016418091586      0.13074135335633
  C   3.52899002509360     -1.23620047015998      0.71110197759470
  C   2.75001248036883     -2.51127355149797      0.95912979392337
  C   2.93779550547065     -3.48831530782466     -0.21522181085470
  C   4.30162861037656     -4.15338344357608      0.11807562042668
  N   4.69257153100802     -3.72133131474456      1.47824402267450
  C   5.56249945200644     -2.54376425491505      1.45913454062887
  C   4.91136197353911     -1.25863884006889      0.95997107807795
  N   5.77727416851837     -0.27165265103539      0.80616579505041
  S   5.24028271968237      1.24018970050973      0.35671923356737
  C   3.52839054332586      1.12683842761429     -0.15302708328933
  N   2.97170957514416      2.15238066829276     -0.70627926683794
  C   3.42215890488807     -3.30721623314992      2.09397378231485
  C   2.62207921100286     -4.46435577319927      2.51076835250862
  C   1.94559817703011     -5.39974432813761      2.83661588405079
  H   1.70382493183296     -2.29888083186875      1.16222437586005
  H   2.94027339974078     -2.95800407807547     -1.16572611907933
  H   2.13965331166473     -4.23297505600343     -0.23263549680102
  H   5.08548168046388     -3.87029174564899     -0.58371757071605
  H   4.21065968085710     -5.24091166160379      0.10475464379223
  H   6.42861042592078     -2.76232434313748      0.83211392070576
  H   5.94345950654330     -2.38191013592688      2.47216596897954
  H   3.64310318714337      2.91203533968110     -0.80381964792819
  H   3.62382880570192     -2.68391026870928      2.96685100393476
  H   1.35169183155540     -6.23233212792059      3.12557209125770
