32
Coordinates from ORCA-job 25791optt
  Cl  1.39359520616236      0.23226550699690      1.11671254332109
  C   3.05877212396706      0.03362180079067      0.54477864151347
  C   3.86561456378373      1.13252499520852      0.63659558172273
  N   5.17657000527540      1.16286010433673      0.28630608370485
  C   5.63830320026649     -0.03896614942325     -0.17270458443097
  C   4.90258645682493     -1.18754683924114     -0.27474411806454
  C   3.52140077192454     -1.25733857431335      0.11517310588416
  C   2.59626085107403     -2.31331165206579     -0.44197468746039
  C   3.23836323021447     -3.72542102374379     -0.50259373317491
  C   2.49177218290631     -4.01798245421549      0.80410641091545
  N   1.59084355668369     -2.88962015693787      0.52167618511657
  C   1.92399336028700     -1.82061308646436     -1.73620583190057
  C   2.93688564440827     -1.66591405432297     -2.88377021555965
  C   2.18145840470288     -2.16242007100440     -4.11797181560566
  C   1.34186257317790     -3.29433701677573     -3.53214425616358
  N   0.88539301716634     -2.72074337780880     -2.27525797397166
  H   3.44468310412720      2.05296454157337      1.03149383199700
  H   6.68480430033862     -0.05727282423261     -0.46643190954566
  H   5.39953112843977     -2.06707838362704     -0.66895812284713
  H   4.32183677676849     -3.79017737899438     -0.48018716145106
  H   2.84711276878217     -4.30783461072176     -1.33771466494117
  H   3.13545689415285     -3.85362330704089      1.67321027219812
  H   1.99257035843512     -4.98597999019841      0.89845082986608
  H   1.40888833553437     -2.28451126652115      1.31276204401437
  H   1.46561751493969     -0.85615614267501     -1.50184051370861
  H   3.79602542966817     -2.31783567272944     -2.70039106121183
  H   3.31932043468591     -0.64984966752425     -2.96629809360441
  H   2.83820940849786     -2.48984951771623     -4.92525325249867
  H   1.52000483784411     -1.38299610992456     -4.50296066111205
  H   1.97583356971473     -4.18760556248200     -3.41196592123885
  H   0.49668946032244     -3.57164851081415     -4.16784058925557
  H   0.59674052892304     -3.38560354738728     -1.56805636250693
