26
Coordinates from ORCA-job 25797optt
  Cl  1.16424274928158      0.33877693832810     -0.11520167759852
  C   2.93799561246766      0.19941089859919     -0.02740059323246
  C   3.46414763663527     -1.04980307021518      0.13465001677011
  C   4.88892821053022     -1.16254620297861      0.20008101832117
  C   5.62907189962820      0.03492546489194      0.08495175157599
  C   7.13427131862605      0.00785980335452      0.14953584816236
  C   7.74033368039166      1.26499367039620     -0.44917996944479
  N   7.11125324598371      2.42699820324611      0.16776780750885
  C   5.69218752474028      2.54650675641208     -0.16507004659122
  C   5.43398050622102      3.12780603913664     -1.55457156755316
  O   5.76871391188865      4.54437736945073     -1.59340876867036
  C   6.92340474989156      4.91821284460552     -2.10313225610674
  O   7.78292543942635      4.21857390735995     -2.56716112660943
  C   4.96933502559906      1.22889718616015     -0.06317738762283
  N   3.58531602061613      1.35979219968010     -0.12653801163539
  H   2.81238499620674     -1.90905831434904      0.20343683101502
  H   5.38226054941866     -2.12057393245581      0.29689084829169
  H   7.50375981660878     -0.87475147595006     -0.38253125467951
  H   7.45496879466027     -0.08471049772448      1.19286384446266
  H   7.61459923988431      1.24769322331241     -1.54261320252924
  H   8.81285322494748      1.31209426545737     -0.24668380866509
  H   7.59779380483773      3.26931960764293     -0.11560978363400
  H   5.23077193255974      3.23716219868637      0.55101568943889
  H   4.36926144207073      3.07599713575795     -1.76717056690399
  H   6.01063754877912      2.61047136734919     -2.31973360805618
  H   7.00560111809887      6.01357441384568     -2.05001002601382
