24
Coordinates from ORCA-job 25810optt
  C   2.77537378122739      2.58007561849404     -0.50666355445987
  C   3.33402352260445      1.20744044796436     -0.39470199878961
  N   2.64785034106513      0.10585870146601     -0.31935490472569
  N   3.52440110195858     -0.94075739274510     -0.22677176959501
  C   4.76512093533048     -0.44631270896901     -0.24956680854218
  N   4.66706584927439      0.92495326942234     -0.35299664093087
  C   5.96596708400672     -1.21176254578949     -0.16584481415646
  C   7.31101964809284     -0.73404141059434     -0.24564643326422
  Cl  7.69762070225845      0.94165288075205     -0.57061342159592
  C   8.44747757484726     -1.56306408776929     -0.12221531316407
  O   9.64146552411214     -1.24170368474813     -0.19926917668296
  N   8.14817979789595     -2.91690168437723      0.11780761758458
  C   6.86957888401730     -3.44412376599779      0.17343015853162
  C   6.78587450911002     -4.91895112373643      0.39203158258623
  C   5.80796578190444     -2.62354676242584      0.03738552049214
  H   1.69055264815366      2.50519187120175     -0.54332972275235
  H   3.12474125720989      3.08318559687773     -1.41157743302734
  H   3.05556124950181      3.19944150352283      0.34907401528150
  H   5.44663753840279      1.55712436013772     -0.41116955563376
  H   8.95852178181887     -3.51086987203885      0.18037110975846
  H   7.26903109689774     -5.20741403080650      1.33204649298913
  H   7.28867107643233     -5.46698638968833     -0.41235087834145
  H   5.74540233008170     -5.23616592227228      0.42725912245843
  H   4.80489598379556     -3.02132286788023      0.09166680597967
