26
Coordinates from ORCA-job 25824optt
  C   1.03251697004962      0.09811610626302     -0.18325701599561
  C   2.50529315136349     -0.06164031235661      0.02513988761746
  C   3.34119789086424      1.09786974985739     -0.20484267791483
  C   2.80111736126024      2.30324278399448     -0.66784124987620
  N   2.39187189808676      3.32084490388615     -1.06286264901887
  C   4.75147157533307      1.01727531888844      0.02586477745630
  N   5.52623077980277      2.16745184082881     -0.11067705019840
  C   5.30476151197076     -0.17284238785395      0.43174404506015
  N   6.71699900143930     -0.23976422809628      0.64343511971041
  C   7.52453571521510     -0.95189810982341     -0.19927672100732
  N   8.76239878856213     -1.24602026966900      0.13613697407757
  S   9.50307311068702     -2.03293822557569     -1.10992671430726
  C   8.14018132151462     -2.00034791821071     -2.13530025922229
  C   7.11120160707182     -1.37957197838402     -1.50795727980825
  C   4.50496937099226     -1.33217565822624      0.63926020216584
  C   3.12532030915238     -1.21741158476421      0.43112643642869
  Cl  2.17816161424076     -2.67240229864290      0.73331474785765
  H   0.82255818055416      0.42155704222633     -1.20780413963228
  H   0.63856694724037      0.88295513163150      0.47059256304823
  H   0.49159044096410     -0.82402738846673      0.01102743666292
  H   5.14273915717258      2.84996156672231     -0.74907779595053
  H   6.50496552768801      1.97530734351688     -0.26098787442290
  H   7.05956504556607     -0.18431916932599      1.59278747975441
  H   8.15081350572994     -2.43597074276890     -3.12218710780923
  H   6.11716858582537     -1.22351692393219     -1.89848470568678
  H   4.95273063165264     -2.26273459171847      0.95405357101111
