22
Coordinates from ORCA-job 25823optt
  Cl  1.23581417539179     -0.13971686574636     -1.00463109732197
  C   2.90495374880778     -0.11735874391035     -0.40435593390144
  N   3.41069437851291     -1.33579394106906     -0.25116355321326
  C   4.69884557437855     -1.37771546964782      0.22773244194823
  C   5.46443394244098     -0.26870004105423      0.44501498776261
  C   4.93413522738632      1.02475635633012      0.23709290255821
  C   3.54004837870469      1.07542519978459     -0.15595500531316
  N   2.97476255476972      2.38132062709660     -0.18681747463371
  C   1.68600329584092      2.83097248101657     -0.08502907738054
  N   1.61629755887804      4.13697882983892     -0.01375892705524
  C   2.91189041924009      4.57724506732292     -0.04556763110159
  C   3.76727073918982      3.51833330982519     -0.14572707555754
  N   5.16935156568981      3.50635858980544     -0.17653610636096
  C   5.80873442493612      2.87555783912421     -1.33425186228638
  C   5.79205530963899      2.19302656968877      0.00270912946750
  H   5.09420505771986     -2.37001494891556      0.41491622407786
  H   6.49291272617595     -0.38225041771402      0.77448438106646
  H   0.84785380289793      2.16165170908744     -0.05521015103396
  H   3.17505168926251      5.62065494937839      0.00912618122947
  H   6.69064066943426      3.39159858543759     -1.69843787021593
  H   5.15376677059753      2.45518422939826     -2.08957569819944
  H   6.71227799010538      2.22548608492240      0.57994121546476
