27
Coordinates from ORCA-job 25834optt
  Cl  2.53249799569050     -0.11041518797630     -3.50164755891988
  C   3.09560406219583      0.09084310412346     -1.86671472328106
  C   2.63309438278276      1.12796391780130     -1.09379912763805
  N   1.86383541731381      2.19939929511689     -1.63783271717834
  C   0.71589791077901      2.25588017272475     -1.11787785110630
  N   -0.12603422868437      3.35744079060807     -1.16751415064706
  C   -0.67492526046649      3.64906070729040      0.16201202012284
  C   0.37464948175293      3.89486963042766      1.27661887709789
  C   1.24076541039978      2.69661842566847      1.73090760980569
  C   2.61886433212592      2.51362785016257      1.02433247687692
  C   2.88031719305460      1.20856578102541      0.29283285280920
  N   3.39998614831604      0.22331439099202      1.06763638074195
  C   3.87918619834462     -0.92066485076741      0.63007910203100
  O   4.25979971231832     -1.88941736440852      1.26211549154552
  S   4.10974699989240     -1.16513630201235     -1.23375589854189
  C   -1.57850524809291      4.80043339721995      0.06562245820152
  C   -2.28771627436389      5.76408740214549      0.00475721077660
  H   0.31479596388870      1.44394838715426     -0.50545708809976
  H   0.34717260835293      4.15899397305125     -1.57084254699219
  H   -1.27403692521274      2.77874677168804      0.45065115629306
  H   -0.18879233308214      4.26602912487594      2.13646335820649
  H   1.02033408796364      4.71820422091702      0.95421161481363
  H   0.66692832607381      1.76885137341332      1.67536390640887
  H   1.43101636734028      2.84795919799382      2.79496042290730
  H   3.39318410241532      2.57722471600129      1.78972287694515
  H   2.77269205699064      3.34827813251875      0.33704701123864
  H   -2.92435848808932      6.61329294224440     -0.05489316441776
