21
Coordinates from ORCA-job 25830optt
  Cl  0.91089753047249     -0.27509609916857      0.74963513784243
  C   2.61031021503818     -0.24332931393699      0.37086390633395
  C   3.26495453359127      0.92553594180302      0.32018609386212
  C   4.67065577393793      1.00009597382453      0.01794493640026
  N   5.44801127160734     -0.06020837398674     -0.25910677725852
  C   5.07436553270851     -1.32554710984736     -0.29738644983991
  O   5.74568441889462     -2.30169803227580     -0.56013996399895
  S   3.30391941276241     -1.79754469087259      0.08589812975424
  C   5.32094691772179      2.26677897146289      0.00033312614821
  C   4.81209354689708      3.58448731364803      0.10147063372823
  O   5.87057963338164      4.48199289813026     -0.00412990351311
  C   6.99108295627688      3.77430466216232     -0.15001136048511
  C   6.76111282625963      2.44102354878232     -0.15990697809315
  C   7.81339542679402      1.48851212121860     -0.25061976739814
  C   8.76282181377708      0.75655310595530     -0.30007512092440
  C   3.57424610842436      4.27104875721657      0.25945607313186
  O   2.43942781949890      3.81527106654692      0.39201178045001
  H   2.72706729732567      1.84583202728048      0.50543611693848
  H   7.91264104498560      4.32720809148442     -0.22758634226323
  H   9.55601262682635      0.05191422921825     -0.35051341831480
  H   3.72877329281816      5.36586491135410      0.25624014749954
