22
Coordinates from ORCA-job 2583optt
  Br  1.12840625143920      0.30299534403308     -0.04718039476188
  C   2.97777597642654     -0.03585095211368     -0.04738305427583
  C   3.56696586643336     -1.29277837493041     -0.04650069337527
  C   2.94977114828786     -2.56201765098196     -0.04523308467932
  C   1.65369410312807     -3.05373908662102     -0.04422376284403
  C   1.70489792588301     -4.50751729390353     -0.04263875922481
  N   0.72839651659016     -5.36755505448578     -0.04106222550561
  C   3.11832430743113     -4.88301283124736     -0.04306014365699
  C   3.84159498192447     -3.73559693190860     -0.04450443772957
  N   5.19027892440366     -3.53843371881633     -0.04536515505659
  N   5.79088602863990     -2.32528714163396     -0.04632680531928
  C   5.02822359293376     -1.28585290884462     -0.04688451765943
  C   5.68003038098668      0.03002975275925     -0.04799167589686
  N   5.03857687273163      1.17485198584802     -0.04869119713657
  N   3.73209502696969      1.12173714171132     -0.04833804855340
  C   7.10547910050374      0.12106271695734     -0.04836002977654
  N   8.25296923788373      0.20620218952684     -0.04805333015009
  H   0.73369703138067     -2.49302352301029     -0.04432324175166
  H   -0.15718687400310     -4.86071079285167     -0.04112163936091
  H   3.47943671423343     -5.89954600472757     -0.04223290771754
  H   5.82793597742751     -4.31256290530811     -0.04459333451226
  H   3.26475090836489      2.01260604054904     -0.04893156105556
