31
Coordinates from ORCA-job 25840opt
  C   1.13165140382463     -0.06747915686867      0.25419370880262
  C   2.62393720869786      0.07594126829887      0.25826022648817
  O   3.35156284878845     -0.72436981028917     -0.67326493610559
  C   3.32657407722088      0.69801758578567     -0.85179088573362
  C   4.65339666419493      1.44378407163857     -0.74388064906459
  C   5.44705001125307      1.00123628143239      0.49221156764601
  C   5.46890235252406      1.02752786623322     -1.97870594887302
  O   4.83421691820251      1.30667667416456     -3.21173554102230
  C   4.41273458700650      2.94599506837860     -0.76614403727724
  C   5.07738991803020      3.87729541306565     -1.59223708863558
  C   4.80892344808216      5.25696500816110     -1.61099071673107
  C   3.75229804596736      5.80788788377098     -0.92856841190703
  Cl  3.56710614649712      7.54884439249790     -0.78258151988970
  N   2.89908620881029      5.03223453300481     -0.12415140007717
  S   3.60933489771555      3.67893693844226      0.56278789545215
  O   4.53531534597364      4.18729600002105      1.54482183577501
  O   2.51209088745989      2.86482046126439      1.04121269666529
  H   0.82141574390108     -0.96495554737782      0.79394132711676
  H   0.76499000855393     -0.13624095942494     -0.77063847088949
  H   0.68866968918397      0.80547815984970      0.73489798835798
  H   3.08599669513620      0.13763965829716      1.23802056696052
  H   2.72538102788585      1.01148702703531     -1.70117650910429
  H   5.51960575926878     -0.08860239868121      0.53511358979108
  H   4.98006332951219      1.36360705615347      1.40810399993832
  H   6.44987579207437      1.42911830959038      0.44899397465896
  H   5.60787128617082     -0.05466536730935     -1.94305984679420
  H   6.45748419328711      1.49927953777136     -1.93194763328027
  H   4.52181865313903      2.21959517693375     -3.17403369172092
  H   5.85858985057226      3.53124466375441     -2.25953900077157
  H   5.45173193472541      5.91153180424149     -2.18361770566392
  H   2.01593506633924      4.76087240016369     -0.54949538411118
