22
Coordinates from ORCA-job 25850optt
  C   3.53436861030111     -0.43517541641505     -0.68734137216117
  C   2.49916216546276     -0.06106757544361      0.36967014459034
  O   2.52592212337547     -1.00451136199404      1.41690446120115
  C   2.75867642599727      1.34110992514674      0.89806794888802
  N   3.26440536927605      1.36582351772412      2.13314127919768
  N   3.58332037806047      2.56342750917275      2.69790194322048
  C   3.39405785946154      3.66325226040082      2.00974629973881
  C   3.75837640798436      4.92720485244838      2.62666599123266
  C   3.56765353721713      6.04072497063829      1.92134557036144
  Cl  3.97476683040945      7.60894699623266      2.54872816286305
  O   3.06657336614254      6.12679667678846      0.69305187038345
  C   2.67613042832272      4.92938785439268     -0.00729623544635
  O   2.23589287768509      5.11528011654125     -1.12299524949619
  C   2.85828528494633      3.71579287255113      0.69163226421224
  C   2.51844894808452      2.45590063690145      0.12662986305135
  H   3.35941089867798     -1.45666515967366     -1.02924338223406
  H   4.53142186858818     -0.37710224313474     -0.24719867553700
  H   3.48672483924938      0.24420098572571     -1.53949842133182
  H   1.50252529848826     -0.08003508677490     -0.08608038505700
  H   2.88422209136888     -0.50743046066994      2.17724979850222
  H   4.17106133136413      4.94978020655369      3.62239383889105
  H   2.09459305953634      2.39035792288780     -0.86647571507035
