26
Coordinates from ORCA-job 25856optt
  C   3.53404223642549      0.08781939513146     -2.08317684208780
  C   3.48969072270058      0.31871363987853     -0.60478067560475
  C   3.53371802122509      1.53208368076543      0.08107703677026
  S   3.48579704347781      1.14100180323727      1.74784192115361
  N   3.42408453827852     -0.51649888177925      1.46974184676014
  N   3.42597359736960     -0.76182131884439      0.19812349564781
  C   3.45457990613098      2.95839654643222     -0.35095805918928
  C   4.13123468211666      3.35425855088883     -1.63904484339665
  O   4.94446145083737      2.71439430141266     -2.24860036287308
  C   2.03543186828399      3.44656155448805     -0.18318844936532
  N   1.73376783135008      3.80815073651043      1.09684538563812
  C   0.46412019727446      3.99412032931486      1.41375798579781
  C   -0.60502566044780      3.87090232592709      0.53903336429912
  C   -0.32035060519492      3.53571308392323     -0.80869448945704
  N   -1.35109592057976      3.52239405115978     -1.75125798968424
  C   0.99564889150388      3.31644465663348     -1.13820891352382
  Cl  1.37479747325764      2.97134006640456     -2.81239167229794
  H   4.54704581383688      0.20696530568729     -2.46835832886648
  H   2.90092013345924      0.79255536476000     -2.61894730037902
  H   3.19157692614430     -0.92697907481960     -2.28263837024834
  H   4.01664054355979      3.56757590098021      0.37748429186414
  H   3.85594773392833      4.37906289832770     -1.96141920593838
  H   0.27267648230205      4.27315920378309      2.44723157421614
  H   -1.62344910498067      4.04766944173639      0.85848972925144
  H   -2.24049318372730      3.26617148751157     -1.34931902733179
  H   -1.14374161853233      2.97784495054902     -2.57564210115466
