28
Coordinates from ORCA-job 2586optt
  Br  1.05383191920488     -0.17728278597817     -0.03181183930883
  C   2.96402970842542     -0.15642104262505      0.05459267901501
  C   3.66179068818181     -1.28831396883886      0.37079395260287
  C   3.03339902497205     -2.62887423647159      0.66106562445223
  C   3.23795465292541     -3.59630112268547     -0.53872968742905
  C   4.58016082108310     -4.34726884137131     -0.52278016922728
  N   5.80317628048752     -3.55900802348951     -0.39706440715222
  C   5.80289039279876     -2.54355471405982      0.69554652881705
  C   5.19617921044956     -3.15671680498763      1.95974955786923
  C   3.68487935394971     -3.29129817193194      1.86318809378492
  O   3.05234206801859     -3.94252972222346      2.65956034371669
  C   5.08701931223297     -1.26755771875785      0.36731028985960
  C   5.74609056315099     -0.06412035712873      0.03248923219270
  C   5.05038473734894      1.07103000479191     -0.27347396420403
  C   3.61098464203246      1.08573059907600     -0.27333368695216
  C   2.92287512097914      2.26395976646995     -0.57962234028376
  N   2.40293623778203      3.27157095888948     -0.84199673381952
  H   1.97193369278088     -2.53427234662786      0.87187146700950
  H   3.13506303685255     -3.01314928049846     -1.45653352715929
  H   2.44073636921473     -4.34433601558292     -0.52352951191643
  H   4.66256788413218     -4.93871298077948     -1.43700132073106
  H   4.56069932296315     -5.07172822198209      0.29763967829632
  H   5.94984255409320     -3.04704195536314     -1.26051176730419
  H   6.85368522652268     -2.31404780854770      0.89069919743522
  H   5.40175899482968     -2.49344885359504      2.80297531211421
  H   5.60812354606431     -4.13992251445823      2.20037399108035
  H   6.83216910703388     -0.04179016861664      0.02233978851779
  H   5.57049553148934      1.98640632737363     -0.52480678127588
