27
Coordinates from ORCA-job 25867optt
  C   1.15278266696589      0.06285843114566     -0.23239290378567
  C   2.65830838522995      0.23923632819720     -0.10146678200764
  O   2.93633909979644      1.60478564889944     -0.34907610541808
  C   3.20845398040124     -0.19812802606685      1.26717083934680
  C   2.65069253788882     -1.57116591691744      1.68813022893242
  C   2.86809181105211     -2.62172830042385      0.69181442236562
  N   2.98691278679663     -3.45853267226961     -0.08411850110621
  N   4.64404032373641     -0.29914338931820      1.28210056383570
  C   5.36478454852965      0.73442569794669      1.60457486361691
  O   4.72899912050990      1.93610341273862      1.83484170218345
  N   5.41537699959077      3.14391426404140      2.20782822939611
  C   6.72591160012915      3.01852367692023      2.25454555877755
  C   7.43973892545337      1.85506368696511      2.03129612840077
  Cl  9.18181359260244      1.87475157822569      2.09939435433527
  C   6.76474959920456      0.66817933972610      1.71624309792826
  N   7.39060817091017     -0.57884451994583      1.56529466771035
  H   0.82153314267730      0.54132457458915     -1.15435830274358
  H   0.64142305046949      0.54933591369316      0.60242006972315
  H   0.86661822224386     -0.98948910424236     -0.27079807915376
  H   3.16345318711101     -0.37568129001396     -0.85753754005566
  H   3.60980403662551      1.91561471258173      0.27474795850547
  H   2.82729639847463      0.52331897489080      2.00457057537273
  H   1.57810773741384     -1.52153475660564      1.88293317168627
  H   3.15816876815420     -1.86955532305031      2.60512000782622
  H   7.23810493805654      3.94205453868659      2.49827960871725
  H   8.27587333074556     -0.51071776423173      1.08040789042964
  H   6.75801303923037     -1.21796971616182      1.09703427518061
