25
Coordinates from ORCA-job 25866optt
  C   3.67459695778097      0.43915069507726     -1.00967039029704
  C   2.53083260351964      0.25658439170698     -0.00614355514528
  C   3.01163862701984      0.11679822977047      1.40891399786121
  C   3.25521692066381      1.20468695632352      2.27080243494765
  Cl  2.94442470177504      2.82932740853296      1.66318436429740
  C   3.72370021261367      1.08986484858427      3.55139185648895
  C   4.00509132225661     -0.19268880905989      4.09064085995448
  C   4.49461795187377     -0.37309562095567      5.41064623865352
  O   4.77258603959593     -1.47539373317740      5.93515565203294
  C   3.78503213113520     -1.32188526499152      3.24346241732552
  C   3.31570994018958     -1.14407740856379      1.96545515095793
  O   3.09722111100108     -2.20869358172952      1.09922787479840
  C   3.37745411561363     -3.47336127363598      1.61096442935412
  C   3.11388824653749     -4.46960708271872      0.56336460069664
  N   2.92291297663841     -5.28018248226486     -0.22343225887184
  H   3.29623432555094      0.55634320769484     -2.02891103787539
  H   4.33746717223394     -0.42735975698388     -0.98653827423821
  H   4.26280167774342      1.32275137841966     -0.75603686353280
  H   1.95639538659073     -0.62960632278906     -0.27962848931524
  H   1.85444261290784      1.11021179703375     -0.07768665354492
  H   3.88487796586081      1.97702590634457      4.15095222364509
  H   4.63047916555495      0.56105119559973      5.98974746459870
  H   4.01067894551315     -2.28930578330570      3.66833093296313
  H   2.75428209599102     -3.70868155549635      2.48102768966857
  H   4.42541679383849     -3.56385733941567      1.91777933457644
