26
Coordinates from ORCA-job 25868optt
  Cl  1.70875228995074      0.40474531565084     -2.76746988322853
  C   3.00692939120333      0.26887601131483     -1.56716539825462
  C   3.24057250317697      1.35745191631205     -0.76914073169104
  N   4.21781982523704      1.36282793688453      0.21404981857353
  C   4.86839279975429      0.19670845255730      0.22710964846383
  N   5.90603486997415     -0.06703290453625      1.16693063540232
  C   6.49537756761300     -1.35677687931438      0.81482431993961
  C   5.61819783136794     -1.96805390868114     -0.33708476340558
  C   5.12222978351203     -3.23349768350882      0.39260889011976
  C   6.43742972137878     -3.75130115786676      1.02761162686318
  C   6.29337989681166     -2.47104609507537      1.87224981394515
  C   4.75720968385686     -2.69368987854975      1.79344573254121
  C   6.96340610685416     -2.27307316703179      3.17595480082487
  O   7.77646893994611     -3.02490657384085      3.65877158794757
  C   4.64587936539322     -0.87342900724719     -0.60464779072073
  N   3.65354703427555     -0.90255644190263     -1.56008499405447
  H   2.64608499581370      2.25350049813042     -0.88597148951876
  H   6.56176177667870      0.70079914752670      1.22674520100786
  H   7.55337381970414     -1.26404815365809      0.55842615863469
  H   6.19257227289837     -2.25651264146951     -1.22529260710172
  H   4.44556968666079     -3.88180670594471     -0.15801131803982
  H   7.31510678822584     -3.83255677789593      0.38277841338028
  H   6.31482638181907     -4.65022088664422      1.63036281938438
  H   4.11722960495429     -1.81520457479113      1.85494644704644
  H   4.43267567548281     -3.48206432941116      2.47255347982345
  H   6.66617138745637     -1.35113151100697      3.71349958211714
