28
Coordinates from ORCA-job 2587optt
  Br  1.90190384840162      1.24890672138209      1.67711109018865
  C   3.50596149209229      0.66596825758106      0.80986672521213
  C   3.59203982697618     -0.69162450906225      0.43639149509503
  C   2.62220110380589     -1.79043623504309      0.70855342408764
  C   1.27200790469072     -1.83854767404313     -0.01667742379730
  C   -0.15027949404959     -1.60722027006268     -0.50192970028136
  N   0.03828807497253     -2.40486845034064     -1.78283351576779
  C   1.05391159364127     -3.52175592376506     -1.83105346227109
  C   2.59411511595165     -3.24117439024441     -1.60198862529911
  C   3.25714037511340     -2.96585668408730     -0.17317666388052
  O   4.60968496801880     -2.60365707084789     -0.39628912240508
  C   4.72170132188199     -1.23059273115165     -0.19524856003669
  C   5.84586996753664     -0.56362600253860     -0.56091092928484
  S   6.00555542931527      1.15249728081943     -0.26233703006969
  C   4.45926890901028      1.66861402558836      0.59507335555994
  O   4.42730643709193      2.86008173666730      0.88703909336810
  H   2.57247582665016     -2.07640523897940      1.76560979631136
  H   1.14391328856362     -2.91151269824048      0.09303527269111
  H   1.69653486290087     -1.57686563004844     -0.97438976412994
  H   -0.40693381636040     -0.58374600084596     -0.77216419959933
  H   -0.92482549220794     -2.02803355751089      0.14757952421079
  H   -0.84229717843425     -2.77584064074071     -2.11885012606638
  H   0.97046625193865     -3.89550975959724     -2.85588595334273
  H   0.77217643947457     -4.36047723285616     -1.17531305552518
  H   2.89753288084282     -2.41127557998330     -2.24684592778310
  H   3.11663710276168     -4.12642011684045     -1.98202407542713
  H   3.24421220788816     -3.90178112426109      0.39420339272577
  H   6.67743075153115     -1.05584050094736     -1.04254503448321
