27
Coordinates from ORCA-job 25872optt
  C   0.74251101761775      0.30600061936539      0.02908371164939
  C   2.22539853275725      0.13418326269777     -0.03700618246047
  C   3.11887116085129      1.01071510429768      0.43186743115079
  C   4.57428352054381      0.97370216929225      0.45092428391384
  C   5.29233148702667      2.15352710737178      0.32566584052373
  Cl  4.43259835291550      3.71033047749318      0.33428271909803
  N   6.59557856535098      2.27828013717216      0.15115570017893
  C   7.30066887722531      1.16026017578895      0.01159208094266
  C   6.78338362789951     -0.16700987593761      0.10553699178770
  N   7.48471153929245     -1.25108325234306     -0.10389846527288
  C   5.36173849878707     -0.25594379764451      0.53321473010611
  C   4.93657519047990     -1.44026164829482      1.03793361419763
  N   3.73309084104222     -1.66736535307487      1.75041014821509
  C   2.78511765248317     -2.50296934700711      1.09098843496687
  C   2.32775048776800     -2.18905015497158     -0.12387250369432
  O   1.56513884173067     -2.98987544270939     -0.91611749181521
  O   2.59190981162135     -1.02377348673498     -0.73978325913341
  H   0.48548160968321      1.22666661946687      0.55000941585260
  H   0.27797215147752     -0.53286458886014      0.55812433459115
  H   0.31490003314321      0.33171026277864     -0.97670198841337
  H   2.67173413105560      1.91998396618563      0.81576978179151
  H   8.36316478268724      1.27767079699537     -0.19051162082745
  H   8.43640521865783     -0.97940027511499     -0.35031665973228
  H   5.58831250679499     -2.29963077838089      0.95341088858005
  H   3.32068408205077     -0.79702097894671      2.05877145781633
  H   2.48142156338124     -3.43314655288560      1.56187755827569
  H   1.61426591567541     -3.88563516599937     -0.56741095228874
