31
Coordinates from ORCA-job 25873optt
  C   0.97821766991786      0.13617933927346      0.11272889660184
  C   2.50182111907814      0.10222984523591      0.10525612623531
  C   3.05429310269563     -1.29540620285519      0.35440854309753
  C   4.57717798954664     -1.34225276984962      0.35552505070520
  C   5.11222640965859     -2.73926840603465      0.61032613161830
  O   4.65673235503613     -3.56680617548699     -0.43901568231302
  C   6.66237031030415     -2.78918559335837      0.64541675127458
  C   7.19682988326806     -1.87617761278110      1.66688114942670
  N   7.60292264671708     -1.11401306010963      2.42267341843443
  C   7.20867818864985     -4.19569300247827      0.73319114917585
  C   7.11143463096089     -5.05857961587928      1.79305052208594
  Cl  6.35802004781898     -4.43426856424719      3.27849879193790
  N   7.49074633566398     -6.31553141927083      1.88617880640408
  C   8.04299737278715     -6.94647371817681      0.83668811585622
  C   8.37849791801084     -6.42649436851469     -0.43893600699025
  N   8.92223568331827     -7.03014779038145     -1.44708650697315
  S   8.05668321647860     -4.69430875914297     -0.73678845126625
  H   0.59306824372507      1.14156319187913     -0.06551453500025
  H   0.58862893979145     -0.20682813933967      1.07356198866947
  H   0.57369120132471     -0.52163580562873     -0.65926872325969
  H   2.89007776308128      0.78678946549493      0.86543909257190
  H   2.87288539165148      0.46972923120828     -0.85638184589214
  H   2.67650185250784     -1.98322057142595     -0.40585848352056
  H   2.68329213149690     -1.66295405747011      1.31757795572586
  H   4.96912183536545     -0.66719126071768      1.12116526242106
  H   4.95792074237424     -0.99804788538472     -0.61250030406717
  H   4.73959544968172     -3.10589062792471      1.57225634564506
  H   5.13134650572306     -4.40747894853301     -0.37862594723512
  H   6.99163972577515     -2.37185312358113     -0.31319196633821
  H   8.28487001936798     -7.99571102992180      0.98758983819642
  H   9.09347531822258     -8.00307256459700     -1.19224548322787
