28
Coordinates from ORCA-job 25887optt
  C   5.17235137794925      1.95146207013864      0.89208822402626
  C   4.20040566427826      0.81560862763405      0.95499377067555
  C   2.84809072165392      0.98196097634237      1.05312560687419
  O   2.35286672789650      2.26666638282095      1.15135038702367
  C   1.19611824800918      2.60491939594244      0.37424213260110
  C   1.36856106544238      2.14616715791856     -1.06668870587159
  C   1.05213156241040      4.13472082293501      0.49534209206151
  C   0.07557046053324      4.38089208815342      1.65585145183001
  C   -0.67631853837484      3.07527613005160      1.72652761014318
  C   -0.07769287273683      2.11224788846050      1.03752473504621
  N   1.94125621000111     -0.02416203066283      1.12621530986908
  C   2.49403477057874     -1.24926791858695      1.05838598266730
  N   3.75862883086579     -1.57457700777227      0.99551837114851
  C   4.65494745395640     -0.54608404386227      1.04291607934639
  Cl  6.22164906362715     -0.91276447365314      0.18811151523714
  H   4.65907524516880      2.90681423463327      0.98292653475094
  H   5.73269630602956      1.93301078872063     -0.04597548151891
  H   5.91053360834326      1.86294610441510      1.69585856602344
  H   2.27825037685590      2.58263473158733     -1.48574568065968
  H   0.51160695860234      2.46710110504481     -1.66142884855542
  H   1.44864975750790      1.06099136115954     -1.11496905300835
  H   0.61891718570509      4.51995726171287     -0.42978853419130
  H   2.03075366959892      4.59212785816100      0.63575505412861
  H   -0.57621507660383      5.23966651854175      1.47857486747834
  H   0.60293962001964      4.56540646595203      2.59652954032289
  H   -1.56825857936477      2.94456887405164      2.32762266927499
  H   -0.36808846336282      1.07378574201196      0.98496714184611
  H   1.78853864540930     -2.07907711185208      1.06816866142981
