29
Coordinates from ORCA-job 25891optt
  C   1.09488738966678     -0.21049322280766     -0.59946930026309
  C   2.42558154249303      0.22945629808617     -0.01215662265294
  C   2.24606256495732      1.28383271733809      1.07885418238950
  N   1.48330501391690      2.43248577759681      0.59117562687124
  C   3.16472918102046     -0.97467345862553      0.58532882703455
  O   3.45726732345668     -1.96006422224027     -0.37204685841774
  O   3.14636685122867      0.76651535862201     -1.12368588978232
  C   4.39184384379647      1.32803560145300     -0.89237808921553
  C   4.56923020014225      2.65406659438825     -1.05547090160721
  O   3.50957381720600      3.49195916499516     -1.21133623526411
  C   5.88667772288397      3.31790759050893     -1.15952833945303
  N   6.03164904154623      4.60268034607801     -0.92456763675933
  C   6.93843271226378      2.50514107154871     -1.69061201699134
  Cl  8.26387526159422      3.35869614294924     -2.45138325520695
  C   6.97992669978630      1.13005554224879     -1.65947939041703
  Cl  7.75156087357398      0.20170176041161     -2.97096201233456
  S   5.81524485234922      0.29394263298436     -0.67603174846133
  H   0.42422840652121     -0.55798844821124      0.19002720904423
  H   1.26538250591047     -1.02551664757059     -1.30105411583829
  H   0.63089896144029      0.61714539787182     -1.13589938645972
  H   3.23563367149937      1.64145039575398      1.37125777844704
  H   1.78977524025470      0.80271109468706      1.95332591297168
  H   1.56221677253806      3.21654328976638      1.22597818484597
  H   0.50106584393227      2.21061692632673      0.48959569382138
  H   2.52036291448845     -1.44115769294948      1.33460732821156
  H   4.07358897656797     -0.63293528666631      1.09547655431427
  H   4.13496973418400     -1.59690617550811     -0.96160491566947
  H   2.70296176150921      3.03886849849510     -0.90468603667149
  H   5.12570031927151      4.97992295246889     -0.65527454648590
