23
Coordinates from ORCA-job 25892optt
  C   0.94529232662749      0.06200215742847     -0.08442994110293
  C   2.44940398071947      0.05886844537731     -0.10441215801412
  C   3.13802370642414      1.24137263062135     -0.23385114458767
  Cl  2.33438210426321      2.78613336172060     -0.28112562023096
  N   4.52808530684303      1.34276217017999     -0.14738989554584
  C   5.23368680455609      0.13748203397080     -0.09691629950146
  C   6.62033024574829     -0.06877340566149     -0.10250212181989
  O   7.60027732002292      0.91165517170340     -0.24064699144119
  C   6.85397031412176     -1.43886734220077     -0.00532537679685
  N   8.12433253496838     -2.03958700396421      0.07321013919068
  C   5.60242515913530     -2.09800492174237      0.06832346863014
  C   5.44988712418624     -3.49082663222807      0.13231212568612
  N   5.36837197149126     -4.64579874255840      0.17721203715529
  C   4.57566727203433     -1.10097808011893      0.00677048097939
  C   3.16067255422779     -1.14715741074831      0.01132628281219
  H   0.55932576211186      0.64476135236000      0.75555290307091
  H   0.57521080991715     -0.95861089212928      0.00617310993508
  H   0.53287617374229      0.50169924751307     -0.99543681465032
  H   4.95559267554979      2.08982665310808     -0.67935238002909
  H   7.89616617277834      1.16818795914367      0.63848316594818
  H   8.79316252496191     -1.56607470199707     -0.52033033809167
  H   8.08485221747506     -3.02263371518350     -0.16501032803721
  H   2.62500493809376     -2.08543833459436      0.07436569644120
