26
Coordinates from ORCA-job 25898optt
  C   1.29020175024532      0.21271270396807     -0.75611258330190
  C   2.51424271929696      0.13232735502595      0.14471539563551
  N   2.51268149256103      1.27787216151834      1.04539265316116
  C   3.37115272307643      1.20069041846560      2.03275128623324
  N   3.55537883925936      2.35344441266207      2.87583953651412
  C   4.08973839679109      0.04098241790871      2.37035177761149
  C   3.83791251237820     -1.19567796560544      1.76415252240938
  C   2.65579511686418     -1.24091508131025      0.83810444049989
  C   1.39658392188441     -1.64773037267832      1.61252757800190
  C   4.55506651900637     -2.36059293667939      2.13108288850355
  O   4.35994351967164     -3.49424062074144      1.69375733211491
  N   5.60148675439255     -2.18913387333725      3.12690194487363
  C   5.71225876837946     -1.06355328010416      3.67511216871027
  Cl  6.89223605931891     -0.84167168177789      4.98586174976408
  N   5.05113364848737      0.07634567975962      3.39386805802454
  H   1.31420570617958      1.14028009115824     -1.33029198459775
  H   0.37854542873249      0.21715052955573     -0.15651814138068
  H   1.25224048669442     -0.63349852511225     -1.44729206762636
  H   3.40704596835372      0.22313610736777     -0.49684555372813
  H   2.82788640683101      3.01086367672733      2.61494437877757
  H   4.43960408702929      2.80335318018784      2.65284977121746
  H   2.84452409519966     -1.99765633544107      0.07075927661893
  H   1.13707175548821     -0.87212364393471      2.33715581475659
  H   1.58394963415529     -2.58040338788071      2.14577480212033
  H   0.54298403696500     -1.79626768765525      0.94637558061513
  H   5.07112965275798      0.86230665795289      4.02478137447110
