30
Coordinates from ORCA-job 25894optt
  C   1.23305453250024      0.29846042788198     -0.96825599600106
  C   2.47632656080106     -0.10396581845600     -0.17449926809518
  C   3.63674307550494     -0.30017881345948     -1.14824231014439
  N   2.84376837838758      1.02967152649057      0.69021729082014
  C   2.17337594304415     -1.37017851465845      0.64510727511752
  C   1.96733689359044     -2.69456298044739     -0.06891084722981
  C   3.15993237948657     -2.50258058516495      0.82862246076305
  C   3.07620619139361     -3.03282355565895      2.25327105425082
  C   1.85564270097999     -2.34321611854232      2.80540339148968
  C   1.45651042601743     -1.26397223888754      1.95250793101143
  C   0.20790778551939     -0.65389031438023      2.29456742375169
  C   -0.42403148750096     -1.02933735576155      3.45291805634455
  N   0.00132186614994     -1.98997209338776      4.32667817371728
  C   1.11615159830210     -2.62844319832352      3.90865523285602
  Cl  1.65805605009338     -3.94998249138665      4.96382983251849
  H   1.42497668851314      1.22143620628368     -1.51898029519595
  H   0.38356856989225      0.45829092923205     -0.30496430630048
  H   0.96358074620605     -0.49163057506539     -1.67111514722821
  H   3.74703286003646      0.59763184412862     -1.75841931799545
  H   3.47108522550898     -1.15248142078481     -1.80875937716041
  H   4.57233668437976     -0.46100215403240     -0.60921171594558
  H   3.65423256600923      0.74594177322118      1.23692770724651
  H   2.11127530832369      1.12980449136476      1.39014584663066
  H   2.15846279348276     -2.76334094177530     -1.13480966229957
  H   1.15744835988706     -3.31787068125125      0.29202620289658
  H   4.12921446313383     -2.46228923318438      0.34833053893108
  H   3.97477235758910     -2.75394164145708      2.81573543668852
  H   2.99385859278340     -4.12162498465769      2.29929230338986
  H   -0.24726641127944      0.12536992910304      1.69374472868655
  H   -1.34588169873623     -0.52932141698274      3.73818735648563
