32
Coordinates from ORCA-job 25904optt
  C   0.75843042943641      0.26162665028444     -0.53199897241812
  C   2.22669465676392     -0.10718333330085     -0.32904585649424
  C   2.49660111499298     -1.51047670388864     -0.86302743283746
  C   3.10991968340101      0.98042478884446     -0.94956225548416
  C   4.62671787851666      0.90894038349163     -0.68275856344413
  C   5.39648905777037     -0.00251937537639     -1.66113534300489
  N   6.57743218382622     -0.44871250400229     -0.92753949917322
  C   7.20735507651150     -1.63774398737039     -1.43434532037661
  C   6.25259836445974     -0.40694518239484      0.45027620395519
  C   6.95674147078810     -0.93293112325586      1.50193456473028
  N   6.59006044612733     -0.70229378423109      2.82367019257082
  C   5.56096805554541      0.14413017434118      3.00098540653729
  C   4.81993424697175      0.70261222706243      1.98536674957399
  Cl  3.52675488113260      1.83559742024515      2.37395014877362
  C   5.07398697472897      0.34931758671907      0.62887876335131
  H   0.09776600562751     -0.47550177544147     -0.06911238808556
  H   0.51388856148543      0.30615550437398     -1.59845058572486
  H   0.53790175954072      1.23795789839921     -0.09515991394082
  H   2.43096564719074     -0.11822717608149      0.74393556056361
  H   2.42659995049812     -1.53467735295565     -1.95589877291126
  H   1.76283534370295     -2.21662098295148     -0.46500563219309
  H   3.48826679737779     -1.85454127574194     -0.56902956435633
  H   2.74879734182765      1.93929825412371     -0.56850089627225
  H   2.94125656561674      0.99822845992486     -2.03660421966446
  H   5.00817930125868      1.93896851299471     -0.82923678629612
  H   5.68853584641017      0.52511437847965     -2.57504402240723
  H   4.77596449628860     -0.86081092364103     -1.95797019290895
  H   7.46638647746075     -1.49538198627183     -2.48642570688233
  H   6.55526481498561     -2.52387971215615     -1.35164267667526
  H   8.12616667929997     -1.83792610329826     -0.88293456207833
  H   7.84101786411414     -1.54092989693843      1.34845663854811
  H   5.30552202634131      0.39393094001358      4.02797493502546
