21
Coordinates from ORCA-job 25902optt
  C   1.03307978920866     -0.58956121960702     -0.51012469403082
  C   2.40643631467447      0.03567666856928     -0.30425478650230
  C   3.46646825989027     -0.97452682203426      0.09672416637877
  O   3.22878719022603     -1.99392974377960      0.68575375487762
  N   2.86191247596208      0.82112732583175     -1.41581400530479
  C   3.32780982141776      0.33546761641726     -2.69147076440737
  N   3.45229174847771     -0.91208836016029     -2.99469878290650
  N   3.61563782506255      1.39660825473028     -3.49353174647725
  C   3.32356075063692      2.49965010790712     -2.78071870811971
  C   2.83397811534149      2.18429046757896     -1.47142924443403
  N   2.44171480505803      2.98585722945403     -0.54511213248511
  O   2.55408873149056      4.35511194238712     -0.90579560475857
  N   3.00582227213705      4.78416885323587     -2.15530456331258
  C   3.36292232601133      3.87155629575709     -3.01653752676226
  Cl  3.91169263264303      4.48276453287617     -4.54376937215944
  H   0.77243110012238     -1.21187287619291      0.34479242224622
  H   1.03130198829641     -1.20685209668701     -1.40898244754811
  H   0.29181104865082      0.19970498997712     -0.62852176533424
  H   2.36311271572347      0.72915992402206      0.54657731050182
  H   4.50184901533629     -0.67972367868467     -0.15782528908628
  H   3.13529107363266     -1.51758941159838     -2.24395622037506
