26
Coordinates from ORCA-job 25909optt
  C   1.08937600225815     -0.28191809438151      0.18252086424459
  C   2.57473890974767     -0.06879379714016     -0.05710698180184
  C   2.84261383596076     -0.06204928040332     -1.56624234035311
  O   3.20569567798174     -1.17235615131209      0.58637441256232
  C   4.60560505337326     -1.23851258550870      0.36057270274798
  C   5.29736720074470      0.03777317367397      0.72127294892129
  C   4.58198566808606      1.28900931755017      0.64181524884285
  C   5.42519592787707      2.37554688745666      0.95952143481928
  Cl  4.77643507594640      4.03085004657669      0.89702445330675
  N   6.67845809879188      2.35440928425127      1.27296625325383
  N   7.34142006341705      1.14384594790389      1.39689545999109
  C   6.60892719083787      0.05457741885236      1.10960609618406
  C   3.10370940961063      1.25347426094347      0.52742590414835
  C   2.22108629406809      2.08881138506065      1.36930224816209
  O   2.39493330715374      2.37820979502803     -0.01001760790613
  H   0.76295036783111     -1.15979353558876     -0.37712153087677
  H   0.52028872778268      0.58513218048242     -0.15337043539626
  H   0.90120010331284     -0.45931902234755      1.24109267167336
  H   2.62711308901693     -1.04960228004529     -1.98041127724027
  H   3.87357748318604      0.20936098466695     -1.79134191927257
  H   2.19333402909067      0.67650989134917     -2.03629139058136
  H   4.77822772270790     -1.51049257625630     -0.69123366975178
  H   4.97296556052651     -2.06354725724495      0.97296191413114
  H   7.14923673308838     -0.88655864629854      1.20182338026053
  H   2.69227276455137      2.79765797144874      2.04119118492420
  H   1.22528570305043      1.76177468128274      1.65176997500633
