26
Coordinates from ORCA-job 2590optt
  Br  1.19263314135394     -0.16298279137376      0.15589356389148
  C   3.12290465186337      0.03585571258255     -0.02629391257491
  C   3.63089650079464      1.30883083500598     -0.00506960561843
  C   3.07712926970231      2.67465387598211      0.11964993218496
  C   4.06283857811577      3.49565486913957     -0.74405459367799
  C   5.34242378862452      2.91067018698877     -0.08660904974988
  N   5.24675831089374      3.39693227494582      1.35128128991532
  C   5.87743004374905      4.69539058361648      1.58550546194927
  C   7.33542412081300      4.57840565529649      1.52899400891216
  C   8.52864417931500      4.49029402498173      1.46408694456596
  S   3.58982371065937      3.38506313754740      1.75545210160815
  O   3.14389286951844      4.76127673350172      1.87412067504110
  O   3.35177308734144      2.52963631370225      2.87911047776629
  C   5.06588130154131      1.45070349217664     -0.15680572136848
  C   5.82264305287799      0.29215873624437     -0.29229927651957
  C   5.17622857142671     -0.92561283548399     -0.30912673567567
  N   3.79467941657051     -1.07221145809654     -0.18156373227674
  H   2.00867520317789      2.83205676028320      0.00412041348078
  H   3.95188817674043      4.57394414045061     -0.62627395084652
  H   3.97839634804045      3.20983226593488     -1.79133658809273
  H   6.29615130580795      3.25186118574184     -0.48556514477707
  H   5.58401552846961      5.05558419472914      2.57155056378698
  H   5.54691542202680      5.45355855721800      0.86289422243732
  H   9.58600022234017      4.39618135361796      1.41333093880035
  H   6.90235956836358      0.32418230799656     -0.39450954966928
  H   5.72859362987193     -1.84892011272983     -0.42548273349289
