25
Coordinates from ORCA-job 25906optt
  C   3.29081036311665      1.36788314683818     -0.43768059399248
  C   2.53528616233963      0.05536061170151     -0.32341083914717
  O   2.78286001810222     -0.80026454982184     -1.43030091764880
  C   2.84421866677252     -0.69156456896043      0.98283808038446
  O   2.74966221376080      0.14186804047473      2.12260753094290
  C   1.51472696690824      0.21532504705044      2.71869596723207
  N   0.48998273370163     -0.10415875320761      1.93151966914517
  S   -0.95049413640068     -0.50178706769345      2.68928275848420
  C   -0.81958915644035      0.46397418355519      4.13633695156863
  Cl  -2.37157175366899      0.68404974897417      4.95520868865844
  N   0.21111207928445      0.97628370436817      4.61754749226803
  C   1.50208299742021      0.69929182816136      4.04722569119142
  N   2.58318171755728      0.95103311165041      4.73737850105905
  C   1.95393482305927     -1.94592113567998      1.11221884118428
  O   2.10406327486047     -2.73922383286274      2.00613916183836
  C   4.27704935039135     -1.20523848772105      1.06622221439473
  O   5.05248156657063     -1.26703135309954      0.14549351865144
  H   2.99775417743870      1.87060868491663     -1.35960382734119
  H   4.36818842221805      1.19314409668369     -0.46287137949273
  H   3.06201111294969      2.01125120401474      0.41107775825412
  H   1.46234448265247      0.24950699338479     -0.32247826091935
  H   3.72456105976978     -1.01567796377574     -1.40618246388961
  H   2.29201895175490      1.32105769215271      5.63957909297100
  H   1.25440593108222     -2.11201069414467      0.27961757653349
  H   4.55391797479880     -1.52475968695963      2.08353878766950
