19
Coordinates from ORCA-job 25911optt
  Cl  3.95646780690855      0.54090591701015      2.41658000297723
  C   3.85394474989724      0.14365193059515      0.71542087324978
  C   3.16492819773872      0.98318547452225     -0.15941807380194
  C   2.54180119306966      2.30322955249084      0.19224843305496
  C   1.04948894366910      2.30916153557276      0.12131026156834
  N   0.27218867092142      2.64175936454042      1.08892158939408
  O   -1.03752332355661      2.51701337600751      0.55929805599295
  C   -0.97646635322889      2.10523031574979     -0.73680794069407
  N   -1.95621889469717      1.89222373382442     -1.51180187361996
  N   0.35876816565226      1.98439187707923     -1.00924179053933
  C   3.14248008197532      0.55340527273172     -1.51687902363281
  O   2.57224662534058      1.14997588878804     -2.43159066975435
  O   3.78865929227473     -0.58628929620429     -1.83051122466806
  N   4.49907459188936     -1.40022175471790     -0.83246054333119
  N   4.46620318763788     -0.96325498447113      0.37770206411642
  H   2.89545102116896      3.06639856370802     -0.50930846099102
  H   2.81756972557030      2.60754469623233      1.19930720440713
  H   -2.82581924993920      2.06601905726946     -1.01833377359286
  H   0.81775556770777      1.65666947927123     -1.85743511013530
