23
Coordinates from ORCA-job 25917optt
  Cl  1.02312940063347     -0.31335905026557     -0.05779983542982
  C   2.75530386365985     -0.10341123008654     -0.05838771063640
  C   3.53050317984996     -1.22359153029459     -0.05710557816363
  N   4.90567313817889     -1.09835733386510     -0.05743272303526
  C   5.47055371808843      0.15825952121739     -0.05928567924566
  C   6.86418941941723      0.40810015247699     -0.06027725534146
  C   7.14659759735234      1.77162603722624     -0.06232256830325
  S   5.68079355383183      2.72318417002428     -0.06298271716764
  C   4.68244376802061      1.29250157686101     -0.06060641442247
  C   3.26986734586386      1.21046052661807     -0.06011623311071
  C   8.47051892139323      2.22895218807176     -0.06349290464795
  N   9.47479351866258      1.32952148690759     -0.06278510508199
  C   9.22136775394968      0.04053465780639     -0.06091630058198
  C   7.91389233869775     -0.56690818137177     -0.05933447523425
  N   7.63151372078792     -1.85419410807803     -0.05722120249441
  C   8.77063827874231      3.62064194768689     -0.06521995172544
  C   8.95969838393050      4.81059051573006     -0.06676062386658
  H   3.11652606717774     -2.21875051783456     -0.05576520253155
  H   5.57365231886214     -1.86988067286597     -0.05672929394768
  H   2.62075377609003      2.07108146973321     -0.06098676088263
  H   10.08530104925305     -0.62202909446407     -0.06047768159762
  H   8.49245446912535     -2.39590094438732     -0.05688569829870
  H   9.14083441843120      5.85692841315364     -0.06810808425292
