28
Coordinates from ORCA-job 25914optt
  C   1.06293134244343     -0.85341416367324     -0.06099072741351
  C   2.21007894235887      0.15001973782205      0.06940536189581
  C   2.78327571559628      0.53603743208144     -1.25081609562975
  C   2.68416353915024      1.72022917490914     -1.91807553419850
  N   2.00948039159192      2.90272675386614     -1.66246331393638
  C   2.55559298276592      4.17225029926579     -1.91898993752390
  C   3.84390195045085      4.42695954580856     -2.18571505651914
  C   4.41342585630107      5.72516170850335     -2.63146342540446
  O   5.56205335417186      5.73688468147242     -3.13954735526896
  C   3.60743165864740      6.85548007332325     -2.35390977946704
  Cl  4.34985993934709      8.43449927142274     -2.57568316907931
  C   2.31247357516715      6.83692016915636     -1.85510181621726
  S   1.31252818246376      5.41453337764659     -2.02489033447672
  N   3.34636899680447      1.53085517768505     -3.11850857434746
  C   3.83308366019531      0.26473152887987     -3.10279965680420
  N   4.55758203658569     -0.25406973815017     -4.17762589025193
  N   3.50564727138845     -0.37419650694257     -2.01951307981379
  H   0.69780981166960     -1.17430883728145      0.91658392624032
  H   1.40209324078281     -1.73184542758658     -0.61091593009783
  H   0.22969067990859     -0.41522269113207     -0.61305158752507
  H   3.00291497087477     -0.28789722025729      0.68214056807418
  H   1.86974133796276      1.04828090934271      0.59124716011996
  H   1.27807456232400      2.86311881838373     -0.97185387831529
  H   4.57301390258266      3.62864955278525     -2.09451285481136
  H   1.83603973656094      7.70345365282226     -1.42483727360467
  H   3.50612130644859      2.25279081228742     -3.80356834978936
  H   5.29974786963964      0.36192716322930     -4.48394113133680
  H   4.93887318581576     -1.15355525567013     -3.91860226449753
