18
Coordinates from ORCA-job 25924opt
  Cl  1.79765892261264      1.85255816136539      1.08046723964586
  C   3.35565506094388      1.24482868913836      0.66347210814583
  N   3.44231088627428     -0.03153875405408      0.71805733814838
  O   4.66737661201828     -0.64008258233583      0.40258742171350
  C   5.65252838439561      0.21540661871888      0.05061885994024
  C   5.54091806803510      1.54840443147060     -0.00357643591591
  N   4.31577358844762      2.17316627648750      0.32163715956519
  N   3.96369861208383      3.50641437372757      0.37264130824692
  N   4.74775591510200      4.44776606667484      0.06929509102943
  C   6.04183141239143      4.47744526775774     -0.35446516318463
  C   6.98300721475046      3.49359817959226     -0.58849122395444
  C   6.79788494722663      2.12532815410347     -0.43444859904876
  C   7.68520132247700      1.06033353326530     -0.63717735959120
  C   7.03794200243260     -0.18966285860572     -0.35164329729671
  O   7.46318956259867     -1.34651287300500     -0.40695051117652
  H   6.35590396445990      5.50088846290092     -0.52189149362511
  H   7.95862182516642      3.83306539566320     -0.92214725444474
  H   8.71174169858324      1.14759345713446     -0.95898518819733
