24
Coordinates from ORCA-job 25932optt
  C   0.98371947388480     -0.23654393302655      0.07021170489405
  C   2.45606570623824      0.01486571431181      0.07458680521806
  C   3.10931283613450      1.19349999789612      0.07370528419085
  C   2.39778099013545      2.51733299813853      0.06923087530207
  C   4.55808419114934      1.19507921627302      0.07732014867523
  C   5.32762301126133      2.35689280660143      0.07645100518185
  C   6.70732959352377      2.27054090816667      0.07949426270445
  Cl  7.66791876655507      3.73355175116254      0.07855660842012
  C   7.38371535130086      1.02281482894200      0.08331280978962
  C   6.65016568570764     -0.13156171366720      0.08435411623506
  O   7.26960790310393     -1.32952313088122      0.08775473051670
  C   5.20934129900769     -0.09116585741068      0.08158651136125
  C   4.48564760008073     -1.28446635760499      0.08322406030340
  O   4.93748093489883     -2.44761313475433      0.08797892136241
  O   3.09374257763109     -1.20569451908951      0.07925914022954
  H   0.39585368368889      0.67587124829244      0.06803184156960
  H   0.71020210199198     -0.82986437609905      0.94715018402652
  H   0.71547454304643     -0.83070161396538     -0.80780215038555
  H   1.31612021026758      2.41542808359294      0.06666430786843
  H   2.68276381042031      3.10222220916172     -0.80946914808969
  H   2.67833765512571      3.10557736120133      0.94711602618558
  H   4.85913575091094      3.33206286257452      0.07322584534151
  H   8.46355606805751      0.97324904979054      0.08549640119413
  H   6.54402025587734     -2.00885439960674      0.08855970790482
