26
Coordinates from ORCA-job 2594optt
  Br  1.08191400691082     -0.16854293226259      0.23045109252155
  C   2.97938641478964     -0.04894817362874      0.01944601580982
  C   3.63162939319314      1.11078296826723      0.30334399003606
  C   3.07358303285144      2.40266068435583      0.81987444748273
  C   3.86628203046431      2.81738911771621      2.06661671220299
  C   5.39397166968824      2.81580023619013      1.77734166219771
  N   5.73673171521694      2.34855753260580      0.43513189768481
  C   5.57304057955002      3.37453590057560     -0.58029507415008
  C   4.17958925098709      3.93549743227399     -0.88478286427873
  O   4.06053897730989      4.79815819464620     -1.74142066992758
  N   3.11234915611011      3.47127355966675     -0.19330209785528
  C   5.05707308502064      1.12516942146222      0.12875509106779
  C   5.68319928612538     -0.03233158855334     -0.30335273717824
  N   5.06910626908070     -1.16485063812842     -0.58878570232883
  C   3.68281885357956     -1.19739780180071     -0.43227934155501
  C   3.02197927991975     -2.40433326139758     -0.73175783297457
  N   2.48585027906220     -3.40293981864750     -0.97936538523950
  H   2.02380873228055      2.28504743342543      1.07841253775431
  H   3.63656026753198      2.10042431567961      2.85658951996329
  H   3.52856553593814      3.80091764043790      2.39948298696133
  H   5.89635617958732      2.16072855953758      2.49063931813029
  H   5.80943818355998      3.81821787219808      1.90506461203777
  H   5.93994492325760      2.98809026640032     -1.53202341042537
  H   6.19092507602610      4.24256489814996     -0.33171785094919
  H   2.23092356960868      3.82937882263251     -0.52879371715971
  H   6.76543425234974     -0.02185064180248     -0.42227319982834
