27
Coordinates from ORCA-job 25943optt
  C   3.16733284297202     -1.89004633885807     -3.39620748797968
  C   2.80605381310247     -1.88785811787566     -1.91741986848675
  C   3.16693148685369     -0.55003474750298     -1.24780726141819
  C   2.72187984631118     -0.55137835745965      0.14924390412743
  C   2.33839211843762     -0.57601227822320      1.28665192231976
  C   4.65285390218824     -0.25051921178095     -1.35561068366135
  N   5.46945336245635     -1.22655099650796     -0.92546844813374
  C   6.77938137203198     -1.13682024826471     -1.06524917605182
  Cl  7.69965052504403     -2.57384404249713     -0.58988321330580
  C   7.50291869722083     -0.09567268440529     -1.54156875581558
  O   8.87302251765873     -0.16025906091005     -1.75170174427679
  C   9.67641375182854      0.03874644525701     -0.67772735687614
  N   10.96818252795242     -0.27132258753795     -1.02609037061940
  O   9.33515030042360      0.45527120756484      0.39128121679151
  S   6.76358748433405      1.42379685478852     -1.98853710057905
  C   5.01173940171686      0.99455181599205     -1.93330266019388
  N   4.16425725194995      1.86752446943399     -2.39178170186769
  H   2.86371144786343     -2.82355179857093     -3.87425659280517
  H   4.24440287852734     -1.77473575094486     -3.52293464622514
  H   2.68160486169823     -1.06185413559398     -3.91706589931444
  H   3.34331389003895     -2.68168260967515     -1.39598251233731
  H   1.73574442301396     -2.06585251508100     -1.78370128482002
  H   2.64272200984349      0.25912950734947     -1.76107471919346
  H   2.02540016162022     -0.58699863523070      2.30159273756310
  H   11.07550339941545     -0.90660701655363     -1.79933460646633
  H   11.58306544930685     -0.40461965010447     -0.24189389141968
  H   4.63833027618941      2.68420048319243     -2.76616979895438
