27
Coordinates from ORCA-job 25940optt
  C   1.06595984365209      0.30662544792633     -0.36252477279078
  C   2.48975351824309     -0.07115800546070      0.02623238936946
  N   3.36761480281284     -0.32775284350252     -1.10942590876855
  N   2.99364894495778     -1.49988188221647     -1.77251974389292
  C   3.31721911393938     -1.63372678889037     -2.98138087747944
  Cl  2.93004728174060     -3.14755463545053     -3.77341486374814
  N   4.02415124088756     -0.75463414040256     -3.79946979676407
  C   3.91269062360058      0.57823733301037     -3.29159699483225
  C   3.56985284098171      0.77810611278940     -1.99062409995106
  C   3.54073457434566      2.21316194259072     -1.74813743571453
  O   3.25108169232016      2.83135456870527     -0.69118104770246
  C   3.90596940907618      2.82609438191839     -3.03408963383566
  C   3.98678568010161      4.30734805418130     -3.20759716942515
  C   4.40695432160455      4.73405353162105     -4.60808554279722
  C   4.13127227883242      1.82722507863804     -3.95902853891967
  H   0.45200352543839      0.44042189864530      0.53100612624465
  H   0.61838055911414     -0.47589892737154     -0.97860312396856
  H   1.07158327200828      1.24467147229986     -0.91822554139337
  H   2.49819406181624     -0.97486015385825      0.63830995124527
  H   2.94563230234542      0.74931942085497      0.57939229012523
  H   3.78261236506623     -0.85507999553751     -4.77649539384759
  H   4.68388106142206      4.72103679901428     -2.47009835154954
  H   3.01849823000870      4.75737911423251     -2.95951603925549
  H   5.38819242210943      4.32440208878779     -4.85819180232478
  H   4.45932986603135      5.82134905564917     -4.69699287957015
  H   3.69820813890085      4.36619937998720     -5.35344803270363
  H   4.42274802864267      1.94056169183846     -4.99429316574955
