22
Coordinates from ORCA-job 25952optt
  Cl  1.91895070445088      0.38661080013680     -2.08974047115260
  C   3.18806316660920      0.25109908382376     -0.87903428713695
  C   3.51420820824100      1.33487629691809     -0.07099856375411
  C   4.59688970032439      1.09026729953556      0.86453487253804
  N   5.05108074883563      1.86007349946753      1.77733979278147
  O   5.18907220358061     -0.13276887822836      0.80403054899628
  N   4.76676165823533     -1.18788026554310     -0.09064651778658
  N   3.78648936213899     -0.91910977349310     -0.87953811936141
  C   2.75883458383327      2.58731112170372     -0.04167863738335
  C   1.43686951776850      2.61955928073418      0.17839294296743
  C   0.58381503250109      3.84138442403693      0.10188079795731
  C   1.33730913450626      5.14211192629726      0.02406013684429
  O   0.79744677048861      6.22568077808121      0.11608216534821
  N   2.68299117660711      5.03717559241644     -0.18265601435844
  C   3.45419133671347      3.86613240968227     -0.33977610173689
  N   4.66305912082834      3.90175475959582     -0.71771424049767
  H   4.56816260244040      2.75164667271106      1.74153254086012
  H   0.92906384449632      1.68663792412778      0.38966956760846
  H   -0.08841696861733      3.91359595252929      0.95979530829002
  H   -0.06907636149167      3.80880695751509     -0.77887385888202
  H   3.16066064236121      5.92197921174866     -0.28859910551751
  H   4.97857381514833      4.85605492620305     -0.89006275662411
