28
Coordinates from ORCA-job 25968optt
  C   0.91017246389994      0.09183059507459      0.13491991812032
  C   2.42243336474074     -0.00232600958169      0.11586587159197
  C   2.98673031250265      0.09371953029050     -1.32457647976827
  N   2.59247687370483     -0.96737503264436     -2.19604036568982
  N   1.43208152943181     -0.67292914468626     -2.94987831017177
  N   1.03435500138545     -1.61632266801033     -3.78954404306875
  C   1.74479353801785     -2.70329387476008     -3.92896269932162
  Cl  1.11870618003471     -3.88873863560116     -5.08303477167193
  C   2.92936661917853     -3.01889483888343     -3.28309926587786
  O   3.66267224598075     -4.17139282410202     -3.47193299600561
  C   3.40516146134896     -2.08107913903023     -2.32526265427875
  N   4.47252540305867     -2.17803238580571     -1.59051901611259
  C   3.15741805689028      1.03046246280779      0.96930218782253
  O   4.43210289015332      0.46523481703599      1.26342797449977
  C   4.27698702852240     -0.93770752080503      1.40584597569983
  C   2.91692910463234     -1.26476036841637      0.80833104874342
  O   2.29565996819378     -2.27334162396283      0.99196631441211
  H   0.57996076783207      1.03849930465158     -0.29750178682190
  H   0.52727743094870      0.00704838713556      1.15433367210962
  H   0.48738883265719     -0.71180238392762     -0.46681408038739
  H   4.07574748731420      0.12389169606435     -1.27769966315105
  H   2.60511309645831      1.02374390942825     -1.75457532945793
  H   3.15169363193398     -4.74147415249213     -4.05677346734761
  H   4.92377559713925     -3.06106990919870     -1.81042783604661
  H   2.60427604881247      1.23200933592015      1.89752334564135
  H   3.32385958501926      1.97377893437821      0.44617292228444
  H   4.28827954594698     -1.23217458869781      2.46110050245759
  H   5.05505593426055     -1.45950387218116      0.84985303179653
