25
Coordinates from ORCA-job 25960optt
  C   1.10829322093146     -0.04679319779033      0.37210787484357
  C   2.59493145990772     -0.00113365195163      0.19580948755589
  C   3.34811368436553      1.17855374938855      0.25790157061635
  Cl  2.44843268167488      2.67087898859095      0.47050411716921
  C   4.72688903463682      1.22933203401781      0.08671707262710
  C   5.51510748612325      2.47247029465208      0.12160946344905
  C   6.46103093609874      2.79853879058838     -0.80269674781751
  S   7.24311903844077      4.28778448144310     -0.44051991971250
  C   6.25994854253742      4.52081882152796      0.95974785612950
  N   6.46966219499659      5.64518468377616      1.78390171127254
  C   5.40776865074455      3.48111490905516      1.13876806236126
  C   5.36706509152933      0.00244474863936     -0.16432335253204
  O   4.63928185745266     -1.16804906164797     -0.27925735691675
  C   3.26971841089751     -1.22084482978391     -0.09141771797349
  O   2.76581456489043     -2.32617100857863     -0.20120335470525
  C   6.74495900324156     -0.19244928002766     -0.29131403972181
  C   7.93497247916022     -0.38441638874098     -0.42834362718743
  H   0.79564051260177      0.36278727541882      1.33738978666980
  H   0.78448126022368     -1.08380670334776      0.31025196351279
  H   0.58391219660124      0.52747429207106     -0.39873473939171
  H   6.75515341325398      2.22610375664051     -1.66660159305219
  H   6.37003303059916      6.51517078743299      1.27669179466948
  H   5.81738343630384      5.64185132950390      2.55687618113368
  H   4.70980999898820      3.42128662013977      1.96163574550384
  H   8.98147781379832     -0.54913144101782     -0.49750023850341
