29
Coordinates from ORCA-job 25969optt
  C   1.25300495836872     -0.48581213853097      0.44195645811590
  C   2.59550917188602      0.08033614865306      0.01377272790067
  C   2.58546425321188      0.47130937967750     -1.48913100057310
  N   3.66361428744156      1.37013872162212     -1.87877448400161
  C   3.42312734390595      2.74914831077559     -1.61365470498551
  C   4.04858486058047      3.40018116078374     -0.54505807432169
  O   4.78395807562682      2.70834124313992      0.43157373493771
  C   4.36858778549126      1.46599616626845      0.77220560135553
  O   5.19295046686199      0.60309159671170      0.97019431706894
  N   3.00598205727309      1.22162026359582      0.83525923058856
  C   2.03493032490420      2.28151319235743      1.05726094550380
  C   3.76639522146960      4.76768117617007     -0.26115276682427
  N   4.13351482448950      5.47652509684710      0.75471283933732
  N   2.96119987265327      5.36963271442512     -1.22975550198567
  C   2.12038959864723      4.56456018597838     -2.02549968165307
  Cl  1.35770645158287      5.53341550473924     -3.32854870123830
  N   2.50324446580616      3.32776415178258     -2.36736378928396
  H   1.01884616248264     -1.36846508901808     -0.15570083725944
  H   0.45193139625859      0.23951999509619      0.28922520690311
  H   1.26835708034143     -0.77288957805615      1.49438040775711
  H   3.36361988022450     -0.67717502810060      0.17093303871585
  H   1.65224029358168      0.97593457936785     -1.74727433617110
  H   2.63152991144871     -0.44678726140547     -2.08214109315205
  H   4.56541351897992      1.06516760742389     -1.53647406551519
  H   2.52721751235393      3.13821391821934      1.51428160116269
  H   1.27674255362316      1.91532931503990      1.75359935600152
  H   1.54326778462553      2.62167411646120      0.14011574761423
  H   4.76325291981589      4.92344984200404      1.32916570979837
  H   2.60041696606335      6.26758470797097     -0.94310788579636
