27
Coordinates from ORCA-job 25962opt
  C   3.66200232372791      1.26888938055985      0.34185523005456
  C   2.83765578630853      0.00848983701146      0.06093342015790
  N   2.85521715611452     -0.94512086200101      1.19446753074009
  C   1.42356415206758      0.40852650362855     -0.14705124215252
  C   0.30650660116393      0.71284281302413     -0.47535051061980
  C   3.35347355582766     -0.72344380019499     -1.15270075073941
  C   3.94070832284822     -0.11564781264720     -2.27910044220680
  C   4.05333177241079     -0.73469518274638     -3.53686679324207
  O   4.64712237293297     -0.22400346167016     -4.52288058188523
  C   3.42168734270628     -2.09775741663540     -3.66425435855795
  N   3.41838541322513     -2.88422141385068     -4.80882690514519
  C   4.06953313637616     -2.59155298903737     -5.85896339311750
  N   4.06930905569350     -3.48336277578958     -6.93364294719447
  C   2.76742251204372     -2.57389627278591     -2.57080491103312
  Cl  1.96298290259563     -4.11607104621539     -2.57057230466431
  N   2.67564249816955     -1.92921885269444     -1.38904023099762
  H   3.32922581869725      1.71579651401475      1.28017179418041
  H   3.54042184117834      2.00191047010971     -0.45558461177936
  H   4.71624160145306      0.99528480110567      0.41904544941112
  H   2.47589256172859     -0.49888544368324      2.02513280636164
  H   3.82787467998677     -1.19066373936687      1.36684927085880
  H   -0.68443173628545      0.97410463238020     -0.75551497813610
  H   4.41463775521413      0.85146889383242     -2.18291142947973
  H   4.67498273047993     -1.69679553995833     -5.97299023324224
  H   3.32286323903772     -4.16274068643047     -6.86943841118937
  H   4.12648888300821     -3.04498240109666     -7.83982590250723
  H   2.27625772128926     -2.40225414886263     -0.59413456387442
