27
Coordinates from ORCA-job 25975optt
  C   2.54060747098879      0.98176431260166      0.92470244278125
  C   2.71806694342479     -0.34478147421891      0.21835786576763
  C   1.62459240877484     -0.77716737593736     -0.70425489765800
  C   2.91629141578607     -0.27383658590422     -1.29127879047732
  O   2.89751173718734      0.96802175531458     -1.92599150032629
  C   3.71661279796182     -1.26928014964157     -1.98019108002357
  N   4.29495125437318     -2.02943090294080     -2.61573922760094
  N   3.42930422278266     -1.38875704302074      0.91260327989545
  C   4.42555206745034     -0.99085734899626      1.84779760822315
  C   5.51676588470639     -0.18020412338165      1.49392600633381
  Cl  6.22662209388859     -0.40512270444406     -0.10428343046572
  C   6.05114508161771      0.83844347183712      2.29496309759680
  C   5.43522395905641      1.29646521327042      3.43327513613641
  N   4.17838854874525      0.78407680211141      3.83333113180429
  S   4.00162576035388     -0.88118791752826      3.49882406768896
  O   4.93706437855236     -1.55437547325725      4.36773567961794
  O   2.59417309530563     -1.17301331982621      3.68037254144368
  H   1.90058679800966      1.64481214527170      0.34504157658270
  H   3.50160038149691      1.47068440928441      1.09476065718249
  H   2.09183279268086      0.79673862876862      1.90148434337394
  H   0.77218357031368     -0.12005741736284     -0.80916192742538
  H   1.43433604457654     -1.83625423222193     -0.81432133550302
  H   3.71619649625745      1.41932702209183     -1.68456649163936
  H   2.79658891464826     -2.06184049525657      1.32104494266742
  H   6.99937342612594      1.27542316654714      2.01366015304216
  H   5.87360117956558      2.05565399441645      4.06238697339027
  H   3.94620127536898      0.96875564242324      4.80352117759121
