33
Coordinates from ORCA-job 25979optt
  C   3.16891412047129      1.47225132069236     -2.26828551263263
  C   3.55496310933098      0.67403730415728     -1.05970304950129
  C   3.12810807099423      1.06248651560554      0.23333512596129
  Cl  2.11740847173913      2.47818992364949      0.42462610058311
  C   3.46915158844474      0.34802316597855      1.41591834752501
  N   3.17422065831496      0.58715956452658      2.65915985924196
  N   4.23244455934635     -0.79772141881145      1.18087175538889
  C   4.79765875429625     -1.15200197671649     -0.05484883532919
  C   4.39274196157021     -0.43189060283800     -1.17332711564628
  C   5.54273393513112     -2.46001239133987     -0.08376414557581
  C   6.49807212087892     -2.50636256899143     -1.28195738421328
  N   6.30288546755709     -2.58538177720971      1.18405666348538
  C   4.58296081227532     -3.68694418892198     -0.18940132091410
  N   5.21550555385828     -4.98408347870666      0.10895917966946
  C   3.33486178326382     -3.61349407737859      0.68481383256394
  O   2.53414003194797     -4.76749198981286      0.47740918363126
  H   3.52942033346326      2.50519490924324     -2.20334371093978
  H   2.08257922952784      1.53527832146978     -2.38412824619391
  H   3.58476844615965      1.01953008796733     -3.16984525942426
  H   2.60398893652316      1.42446885582942      2.71156048978480
  H   4.55721419225106     -1.24897450260587      2.02104281790990
  H   4.75081248155972     -0.71310692322508     -2.15487053700103
  H   7.17437377311520     -1.65155348905260     -1.24851330588082
  H   5.95997352168007     -2.48627739206086     -2.23029231730641
  H   7.09485940998074     -3.42357183179832     -1.25393295145802
  H   6.73574184450065     -1.68686943389176      1.37878144628368
  H   7.05857034313334     -3.25252279955692      1.06978586190872
  H   4.23761404047559     -3.73106944062753     -1.22684239231947
  H   5.63443926669124     -4.94022212829744      1.03317733528471
  H   5.94344781970723     -5.21111174205604     -0.55612875293212
  H   2.73815133700884     -2.74072991243512      0.43055596415073
  H   3.62626019383121     -3.53018495964665      1.73873345575273
  H   3.16201383097037     -5.49504094313831      0.37639741814282
