16
Coordinates from ORCA-job 25977optt
  Cl  1.12435830806927     -0.01733865341731     -0.03387307152677
  C   2.87812751525950     -0.06069436439946     -0.03208715780838
  N   3.46304052275387      1.11914128554866     -0.03338181759192
  C   4.81309166534556      1.08017161681035     -0.03199755272280
  C   5.54865611851881     -0.14848907521865     -0.02923838483354
  N   6.90066015875740     -0.18356074018041     -0.02754171616213
  C   7.50378327806869      1.00254645767190     -0.02876665749167
  C   8.99059111913035      1.08084007336386     -0.02628753792514
  O   9.75278157549149      0.14998140991184     -0.02165393575626
  N   6.93177640012319      2.20488824692584     -0.03170874366475
  C   5.60918311672502      2.23842676347607     -0.03324609084134
  Cl  4.84699094138687      3.79635654699101     -0.03685988046592
  C   4.74375323686589     -1.29549097416519     -0.02835338710338
  Cl  5.47795039207398     -2.85765182992515     -0.02528534571392
  N   3.40399158053568     -1.25884772268691     -0.02972703283704
  H   9.34926407089438      2.12672095929355     -0.02899168755504
