30
Coordinates from ORCA-job 25973optt
  C   3.92244260846409     -0.22695943919767      1.18421083365662
  C   2.69523974015154      0.09681565952566      0.32752240509585
  C   2.94866368383324      1.21161053387213     -0.64615090354169
  C   3.26736140459907      0.96803601008793     -2.01032141459324
  C   3.52266141756023      2.03874864842925     -2.85916243376052
  Cl  3.90732522916561      1.62658091493178     -4.53609237398895
  C   3.49745524682426      3.37497025340338     -2.48308020319352
  C   3.77127365439050      4.55220752676910     -3.36065551622921
  C   3.16873486038095      3.62309552849504     -1.11746940111507
  C   2.91151749367455      2.52694813400786     -0.25821964513391
  O   2.65116774757750      2.97196766424312      1.00376664759120
  C   2.85322639672140      4.38029390847454      0.99833066232522
  C   3.07836755154783      4.77780338072097     -0.32866746358615
  N   2.12867006727418      5.10772189829220      1.96452681097545
  C   0.76811736129734      4.67097795291329      2.30042992777920
  C   1.89930788043673      4.50307002006284      3.25171228659526
  H   3.72217149335634     -1.04542091130896      1.88182910296911
  H   4.21726063296223      0.65248702362250      1.75806717767075
  H   4.76369711351703     -0.51053941227414      0.54914045308427
  H   1.86710486228992      0.37020436951201      0.98880540154997
  H   2.38556675373830     -0.79697712419560     -0.22190714489165
  H   3.31858241718163     -0.04391304143599     -2.38802947523011
  H   4.02771279260374      4.26423912373264     -4.37791513113254
  H   4.59354028599985      5.15068164230943     -2.94999012518223
  H   2.89750078262950      5.21573936350444     -3.39582132911244
  H   3.20553231182084      5.80187106060069     -0.64121678397139
  H   0.41018128511471      3.77650769978112      1.80589021879939
  H   0.04223643429891      5.46171049951557      2.44977130817627
  H   2.26763045694620      3.49370386860182      3.39726780538987
  H   1.98975003364165      5.16381724300286      4.10742830300420
