24
Coordinates from ORCA-job 2598optt
  Br  1.94668617299054     -0.68148833644101      1.88241898120080
  C   3.42050823354867     -0.47116936885302      0.71696733332653
  C   3.99498985714568      0.70126007786576      0.47642899234492
  C   3.89110412924751      2.09308115631231      0.94439103914897
  C   5.08950199884548      2.49658391253077      1.82172215854457
  C   5.22051701249687      3.77837048355915      1.04449335314567
  N   5.68189010318179      3.35204761099751     -0.30422867564205
  C   5.98902335570832      1.95610288426514     -0.72065666889183
  N   7.02796398025918      1.79496056397634     -1.47022958561820
  C   5.16783508898978      0.73494391069508     -0.42425281501940
  N   5.60810146362152     -0.42836487629819     -0.92785095846863
  C   4.96341222490238     -1.58103924983184     -0.69936594606248
  N   5.23965540167763     -2.74416963296601     -1.15096009242689
  O   3.80660235565648     -1.61646363416200      0.14666492085987
  C   3.69372062196833      4.21240697247484      1.20200029424028
  O   3.25581406648979      5.31710070830082      1.27165352788919
  O   2.91618867138960      3.08626457358594      1.39591010563502
  H   4.02251943483640      2.49876780022159     -0.04121238370665
  H   5.95472693463064      1.84574168692598      1.75918552096758
  H   4.75540646890849      2.61997858275618      2.85188436517590
  H   5.84234176812890      4.58920068879129      1.42192568686454
  H   6.42172812671391      3.94647051043512     -0.64282493528120
  H   7.52811803994711      2.67219507741276     -1.59709477611240
  H   6.05864448871491     -2.63178210255456     -1.74196944211412
