29
Coordinates from ORCA-job 25988optt
  C   0.98996166566640      1.34550102385806      1.32523588458233
  C   2.46377259058828      1.68319950123716      1.46899842556921
  N   3.10942270225377      1.70406027164230      0.15328478989492
  C   4.49546434835932      1.90499118520223      0.18924227305135
  C   5.14597242457022      3.09231944451838     -0.07670764208049
  Cl  4.22681557025687      4.50272112173780     -0.50480318762426
  C   6.52123653430255      3.14705740897407      0.05174080379506
  C   7.23813907396019      2.00051138508319      0.47503233572809
  C   8.71249703947081      2.29833581285517      0.50134720841915
  C   9.42879005107932      1.88669056018866      1.78570721533114
  C   8.71183982525193      3.80441274974030      0.23445558569078
  C   7.97855950778096      4.69506906709251      1.16068398947287
  N   7.36754452214068      4.28892283904169     -0.11779456643195
  C   6.61897155977652      0.77722922425905      0.72199182172660
  O   7.10503714928200     -0.30242336051702      1.04156651891996
  O   5.20685190463510      0.77760550430265      0.57259134239590
  H   0.48567073773442      1.36449512395848      2.29271942300272
  H   0.86223469965393      0.34596255111775      0.90157978235543
  H   0.50311359766493      2.05940787105343      0.65923356095809
  H   2.95226979922585      0.97153550904036      2.14704480356879
  H   2.58218654047181      2.68025547411394      1.89871438108636
  H   2.90723500656704      0.83147814296667     -0.32878702628385
  H   9.22797427824234      1.80869049168292     -0.33707638878022
  H   8.98884212744236      2.39709660753113      2.64467957966112
  H   10.49475614466926      2.13103171494598      1.74415078241233
  H   9.31182936285632      0.81318542560628      1.93459715249757
  H   9.52390071327216      4.22430981304286     -0.34904864211670
  H   8.24265442009994      5.74385135651535      1.22637649963195
  H   7.55445610272452      4.25349617920856      2.05524329356571
