28
Coordinates from ORCA-job 25998optt
  C   1.13155907404792      0.08665611171711     -0.19082060276714
  C   2.63962862064866      0.10605781594054      0.04180142537604
  N   3.14709352978049      1.47425868475566      0.23631911033880
  C   3.09420750534015     -0.74396529153653      1.25702955776429
  N   2.62450344877272     -0.03020780648503      2.47943944109217
  C   4.59807482585389     -0.96752507871867      1.19419149758584
  C   4.87223613368677     -2.32128716946654      1.07651804122862
  C   3.66793609110981     -3.04539745134879      1.10840984756272
  C   2.57012446838272     -2.16959347192628      1.23889365059282
  C   1.31296773434902     -2.69675201696990      1.44051639314746
  C   1.12937825697353     -4.08304893286503      1.45670428745093
  Cl  -0.47355001374595     -4.73529572882453      1.68337854549876
  C   2.20257455069026     -5.01405958999935      1.28040185878781
  N   2.18873675549338     -6.31159488103792      1.25564619630198
  N   3.44843798618370     -4.40601685857192      1.11941667384579
  H   0.86978176578466      0.79113037346992     -0.98515513071925
  H   0.61524824521533      0.38688761500643      0.72433086626812
  H   0.78227707626607     -0.90371219964323     -0.48098975060473
  H   3.14513375657955     -0.30832481984208     -0.83423849378988
  H   2.60933216595977      1.89584924058022      0.98892099461619
  H   2.96144313259038      2.02746840662251     -0.59288644675805
  H   3.35125186860238      0.62741908254898      2.74925888878943
  H   2.58027582118049     -0.71474817542200      3.22665742292130
  H   5.29040082930311     -0.14904567404719      1.06377087654403
  H   5.85626051380239     -2.76306605860366      0.98286847802091
  H   0.45341870156722     -2.05434368014474      1.59439030700155
  H   1.23756205187628     -6.63858632112664      1.38593395352328
  H   4.21270510370530     -5.05615612406132      1.03329211038019
