27
Coordinates from ORCA-job 2600optt
  Br  4.92305376743903    -10.53602842992283     -3.19953430648944
  C   5.14438848389855     -8.83509405270714     -4.11456309333545
  C   4.76233383312868     -7.69732360173451     -3.40918441304181
  C   3.76875050575878     -7.26924624681366     -2.35206613241367
  C   3.99252213706657     -7.79605576710153     -0.93708805207511
  C   3.27532344840543     -6.93929016030767      0.09988803901185
  N   1.93568530101880     -6.53239799692821     -0.32794005713477
  C   1.75676183650973     -5.48952490217837     -1.22151996392897
  N   2.51961105617809     -5.04942971254944     -2.12776267966350
  C   3.79576272543615     -5.69002551081463     -2.42872831902276
  C   4.28419607082098     -5.43294422661347     -3.83829577381934
  C   4.48138720436598     -4.58016319039858     -4.90504379187842
  N   5.11609232999127     -5.23272832448205     -5.94357070520033
  C   5.31516256666058     -6.48785513005969     -5.51660557913391
  C   5.83003579820522     -7.71351578589044     -6.03346246608395
  N   5.67973101214053     -8.86417493399140     -5.29951442677284
  N   4.83206086700981     -6.59195238405289     -4.25862673812631
  H   2.75182319587839     -7.55393565100082     -2.66314052429333
  H   5.06366591806223     -7.80156722480356     -0.71875262976073
  H   3.64842510318577     -8.83000917292706     -0.88138630240801
  H   3.86646969574263     -6.04531621807472      0.32338536362399
  H   3.16458127796599     -7.48827287564034      1.03557985767667
  H   1.23065600527412     -6.56508358015431      0.38872835732199
  H   0.78119335832778     -5.01243653932683     -1.10946130252445
  H   4.55082290519870     -5.31477541836383     -1.72510318138351
  H   4.18660419882535     -3.54715838430413     -4.99562870764064
  H   6.24689939750481     -7.79469457885775     -7.02460247150320
