30
Coordinates from ORCA-job 26017optt
  C   3.10247596483398      0.41342108528597     -2.63193889707618
  C   2.83995563692774      0.39574866146466     -1.12614989323577
  N   2.83224398437121     -0.93784452935346     -0.54815260044486
  C   1.71794995269500     -1.78780062165213     -0.90704324595105
  C   1.53547781130392     -2.85861397968760      0.16054425031614
  O   1.42761092457612     -2.28089868429297      1.44250279441730
  C   4.11414536926649     -1.53351749552895     -0.42057535519745
  N   4.93233083771568     -1.06345996087136      0.54479381820055
  C   6.07111836449968     -1.77817929305256      0.43343465873538
  N   7.13764461041936     -1.59436726796910      1.22867637614959
  S   8.45233975000764     -2.57351598959734      0.96049675612253
  C   8.03794187575657     -3.57155863396390     -0.40613381170881
  Cl  9.36040787931435     -4.63499272719539     -0.88494409745045
  N   6.95192766906055     -3.59913791137084     -1.04584055481758
  C   5.95316305100435     -2.73221417826247     -0.63893146966603
  C   4.68408119625371     -2.56478668684791     -1.19632367477799
  C   4.14856802541200     -3.31344047727646     -2.37467776400880
  H   3.13976627825529      1.43667032718453     -3.01203492121221
  H   2.31863352628381     -0.12079827164970     -3.17431384213032
  H   4.05798804805136     -0.07008889870834     -2.84461177456957
  H   1.87758406532527      0.86889030225371     -0.90622163235771
  H   3.61371628902646      0.96080180467577     -0.60554098316422
  H   1.80005442723674     -2.26592027024072     -1.89324670236271
  H   0.82391469356339     -1.15616584157991     -0.92234656560014
  H   2.37930776347736     -3.55748699289707      0.12363123646714
  H   0.61598226888552     -3.41683819547846     -0.02629396080591
  H   2.14917214634292     -1.63514443287130      1.49471954056336
  H   4.95814661451733     -3.89054024263027     -2.82415645998697
  H   3.74415832565173     -2.64415650468769     -3.13926863641343
  H   3.35319264996433     -4.01706409319865     -2.10505258803382
