26
Coordinates from ORCA-job 26015optt
  C   1.09342045356921      0.27732947716278      0.09059700477771
  C   2.56425550296665      0.16745540906838     -0.15595506035762
  C   3.19065655480175     -0.99149538177492     -0.39307764280293
  O   2.50009588376186     -2.19723127659613     -0.43823343636974
  C   2.51968602298079     -2.88227735559767      0.77659630561109
  C   2.53579456260665     -4.36995849909167      0.69065019712024
  C   3.78132731415670     -3.61644252030609      1.08910168910911
  C   4.90973352789865     -3.44022018349444      0.09720003555084
  C   5.40351349259507     -2.00021170201098      0.01757234787230
  N   4.53925573412202     -1.09639193741862     -0.74412818046623
  N   5.26311136703539      0.09140236689095     -0.99984825162767
  C   4.64918119043054      1.22403787183760     -0.67820171001476
  Cl  5.64088928875093      2.64664307173287     -0.92350531591783
  C   3.33926685932433      1.42990777607293     -0.19709756509189
  O   2.81494519627866      2.52471892028560      0.13819156902302
  H   0.60002823699487     -0.69126752489907      0.01906753118467
  H   0.64868197501964      0.96982940366259     -0.62758937004429
  H   0.91404884036960      0.71341791326474      1.07561902682732
  H   1.96665458770026     -2.39761383757469      1.57459771812987
  H   2.52035299170851     -4.78800217621650     -0.30709969698986
  H   1.99552995711670     -4.93087938802977      1.44057445800877
  H   4.07243391337665     -3.65953762911658      2.13188792277810
  H   4.58784557049185     -3.75412986890183     -0.89717514522673
  H   5.74820950064427     -4.07902571059814      0.38660326432192
  H   6.36447230503098     -1.95908633396132     -0.49453395819503
  H   5.56060917026736     -1.60197088438999      1.03318626278963
