28
Coordinates from ORCA-job 26022optt
  C   0.91649628047957     -0.88434266391754      0.91360305356530
  C   2.39953524188130     -0.92383197066707      1.25808379921741
  C   3.21713330338947     -1.65880151944307      0.19415898906350
  C   4.69236748714208     -1.61314569769640      0.52125856922059
  N   5.20202261646786     -0.37706367900775      0.51648402486596
  C   6.47579699664766     -0.18743757827572      0.94005553966375
  O   7.06364424298893      0.88742441759328      0.95632572884706
  N   7.15533825408470     -1.31588537476376      1.43833150785662
  C   6.69995354305340     -2.60585038024887      1.39216390944557
  Cl  7.99846494483655     -3.80804992425634      0.76276053219386
  C   5.38565704651408     -2.76772259648647      0.87946912021453
  C   4.82029638578572     -4.11661053794947      0.75408529708860
  C   4.26881538621893     -4.58211843448870     -0.58043878521262
  O   2.96924320684963     -5.13855944177647     -0.51191719190651
  N   4.93429315456060     -4.91049699487580      1.74695783006916
  O   4.50350138073290     -6.22046825434686      1.41391359496295
  H   0.33840344808468     -0.37022209848908      1.68397449898746
  H   0.51180434267234     -1.89327452307046      0.80434288689319
  H   0.75562640573363     -0.36094178359981     -0.03173210101031
  H   2.54768986874907     -1.42341759049149      2.21995203009943
  H   2.80031633127300      0.08550945932349      1.35922013155395
  H   3.06740437411113     -1.16189502003802     -0.76956842483651
  H   2.84598888001919     -2.68150926858414      0.11098090551840
  H   8.08144960733526     -1.12700573721565      1.78876680515172
  H   4.98730906575395     -5.30645385765347     -0.98415178758846
  H   4.22266911742900     -3.73774952935427     -1.26378904769341
  H   3.01170846811203     -5.83158853042856      0.15690961816234
  H   4.70007061909321     -6.70749088979146      2.21679896560646
