26
Coordinates from ORCA-job 26035optt
  C   1.57763383648697      0.96626446344847      0.36638652170651
  C   2.57968151801446     -0.05876978597514     -0.05569552498898
  C   3.33507354409559     -0.05690826778631     -1.20415133300775
  Cl  3.07937078547325      1.24166553774659     -2.37791930190122
  N   4.28779343341415     -0.89917495857075     -1.56035157142860
  C   4.53899418297121     -1.91487816504979     -0.74213653217854
  N   3.62719519791888     -2.18059586030488      0.31078112023930
  C   3.89326392876882     -3.37288378694988      0.97847776804639
  C   3.97743811284978     -4.49946165919059      0.24548493822422
  C   3.26054939288411     -4.71178154575664     -1.04924672180652
  S   5.54859146141908     -5.25787363057788      0.45659973889776
  C   6.38779399074327     -3.65069998917372      0.10130274899310
  N   7.50827545849700     -3.36959457221937      0.60372897535327
  C   5.75191009956424     -2.69737144171195     -0.93986472540138
  O   6.41388678136870     -2.60522232763896     -1.98356946920632
  C   2.72124759553228     -1.21982255159926      0.78896778166996
  N   2.01454067950308     -1.38919613018735      1.85303199717957
  H   1.60114379548514      1.83752979367435     -0.28279794835182
  H   1.77209374754815      1.27590609081315      1.39538944597282
  H   0.56796377482265      0.54526774381545      0.36378676420340
  H   4.35090666450372     -3.29856543028868      1.96227505589470
  H   2.34312375488717     -4.12326219261515     -1.07945220560612
  H   3.01517592616402     -5.76974170339576     -1.16430323494114
  H   3.89042634643908     -4.42307681062785     -1.89616085909454
  H   7.86356582788280     -4.12575534387861      1.18817658490164
  H   2.20736016276222     -2.29299747599941      2.27925998663028
