30
Coordinates from ORCA-job 26038optt
  C   2.18261841726054     -1.05684672236253     -0.77621505837910
  C   3.25079006866004     -0.15166843583288     -0.17809481294379
  C   2.77259588838152      1.28828502532434      0.07202896687685
  C   2.32194244298097      2.01336701356654     -1.23024964013951
  C   2.68388571820378      3.43653162178521     -0.97585348789663
  C   2.38059626733464      4.61183813077913     -1.74071424384314
  C   3.02276684586006      5.78311430494282     -1.34290065147159
  O   2.73702548294865      6.96466095213201     -1.99491455512233
  N   3.90922938860351      5.91563240166308     -0.37785726730824
  C   4.22460204581594      4.75229331152747      0.27996643648900
  Cl  5.39990544679693      4.91231232243369      1.57994842437067
  C   3.63649077879309      3.53696800089622      0.03179958801266
  C   3.91719690194928      2.18666742480317      0.62663203050981
  C   1.65502540706724      1.26924200418115      1.02542731309628
  C   0.73377562907897      1.22516622651025      1.79598577862338
  C   -0.38055826689915      1.22803093837089      2.73811454587216
  H   2.56460943052311     -2.06730625925426     -0.93456370889848
  H   1.84398565831027     -0.66885943019539     -1.73908618289954
  H   1.31620397127812     -1.11613735610435     -0.11535166208799
  H   4.11008955805265     -0.09815628010211     -0.85214521664381
  H   3.60965818505591     -0.57027968677800      0.76702069395637
  H   1.25857180207815      1.84225783533759     -1.43136689836888
  H   2.87466534570785      1.58530299201729     -2.09054991254146
  H   1.63502987486029      4.62359467884868     -2.52720305914654
  H   2.09818217507264      6.75290465670277     -2.68099414189456
  H   3.94213055354433      2.18611314134349      1.71776571121779
  H   4.88517363549743      1.80727008019392      0.27799809366713
  H   -0.23435240178864      0.48680946631078      3.52558916345933
  H   -1.32108715660633      1.00042370083661      2.23333860043506
  H   -0.48274909442184      2.20646794012234      3.21044515299910
