28
Coordinates from ORCA-job 26036optt
  Cl  1.10344471066771     -0.70330313470960      0.14956974920371
  C   2.79151388537250     -0.24049934582265      0.05033415571228
  C   3.15291693701248      1.13658341040141      0.11189552289620
  C   2.25351954264951      2.24124999731461      0.18046666892405
  C   2.63831213278538      3.57766636042501      0.02692908872632
  C   4.04814535320190      3.62419017793260     -0.43348155039696
  C   5.42434046345118      4.04160732345006      0.02595764029524
  C   5.67026743971106      5.08299358486784      1.09008760028148
  C   6.91140139502233      4.74776471045111      1.89988538844589
  C   7.24944504212054      5.71172981323855      2.99388059855933
  O   6.64277153675277      6.71648428876813      3.25392471422083
  C   4.85710488655258      2.73987752623236      0.49746187060183
  C   4.61168569778611      1.32145690134326      0.13971598603183
  N   5.51251647614412      0.39358117222852     -0.00957361378594
  C   5.08437692599288     -0.88710238165324     -0.19269948643281
  C   3.73616453782975     -1.22666518479552     -0.11987571912997
  H   1.20097944211098      2.00458593961910      0.29136729493043
  H   1.90770019501614      4.36602602044787     -0.10435787719811
  H   4.14713350953256      3.23469779121696     -1.45177433659673
  H   6.15872311041688      4.03890464826722     -0.77404821627989
  H   4.80124737046989      5.13168794522251      1.75003478769562
  H   5.77617742892558      6.07335764875190      0.64049000740551
  H   7.79948042439117      4.67023124390645      1.25875171190445
  H   6.81525665182900      3.75320263491326      2.35297619244523
  H   8.14410236552233      5.44227989716905      3.59466875229509
  H   4.45869111380599      2.89201547693818      1.50189360600546
  H   5.84451293907126     -1.64410584625927     -0.33696690356172
  H   3.42606848585535     -2.26149861986572     -0.19451363319868
