29
Coordinates from ORCA-job 2603optt
  Br  1.67884036281538      0.73444388211854      1.92548005667952
  C   3.13744549961359      0.32272309975278      0.78662668203676
  C   3.38205044776820     -0.91049109905454      0.29421256531947
  C   2.79221317145656     -2.29472325920284      0.49912774189748
  C   1.32080800485411     -2.46844725817313      0.83045631347358
  C   0.39138045792670     -2.10076295328974     -0.31214863904473
  N   0.36933713594613     -3.13427196146209     -1.34679035107658
  C   1.32796296694756     -3.20719996670183     -2.33456634244405
  N   1.14861467368908     -3.66559402726918     -3.52198689400143
  N   2.56614190911133     -2.71402835817429     -1.98564701796454
  C   3.29510960803233     -3.03760652313672     -0.75809341098195
  C   4.69172197958852     -2.43464605821726     -0.89324202524719
  N   4.45880366679702     -1.07042358001974     -0.51384714549792
  N   5.45944065187428     -0.13798337090534     -0.73789662232013
  N   5.17357617447669      1.10559781317858     -0.32127877864842
  C   4.05441240316373      1.41811077674853      0.39728206977647
  N   3.76945799638425      2.62784029878422      0.76895225676855
  H   3.36202966129760     -2.72711866373059      1.33278811730775
  H   1.14546809904734     -3.51859772213098      1.08333205989455
  H   1.07855454146454     -1.87063809515007      1.70519476636409
  H   0.68084119304616     -1.13110063824193     -0.72873340532651
  H   -0.62781585393123     -2.01057998710546      0.06308171722853
  H   -0.54391630817490     -3.41123320792178     -1.66461683037679
  H   0.16232707219851     -3.83272217611598     -3.70018796252560
  H   3.16050023865846     -2.70814547199743     -2.80174381193888
  H   3.31923788089972     -4.11928975048835     -0.58788626065494
  H   5.09881192224447     -2.48037003537935     -1.90572734195213
  H   5.40230105748619     -2.93513467370687     -0.21868585432585
  H   4.51534338531764      3.22439296699288      0.41154434758090
