30
Coordinates from ORCA-job 26043optt
  C   1.26350798731679     -0.34061197131724      0.58120773917351
  C   2.68502842039677     -0.03291694711055      0.11285471366399
  C   2.94351163011683      1.45884653647922     -0.23738007600174
  C   3.75595060863476      1.56144116558242     -1.54880828838303
  C   2.94953560411592      0.97950792019570     -2.71350540388280
  C   1.51147189405249      0.61042219666510     -2.58791266968591
  O   0.78607977515172      0.58635408752381     -3.79664079871413
  C   2.56978264061937     -0.44476579085230     -2.40813002324584
  C   3.17794393686312     -0.89725050209148     -1.07502722721179
  C   4.66641369380492     -0.63459065306487     -1.16756037576593
  N   5.57119102096989     -1.64858465683809     -0.91541104561595
  C   6.83487660531559     -1.19733807824798     -0.95862163534665
  Cl  8.06263971109767     -2.45634377951711     -0.66647514703018
  C   7.28713055798306      0.07230901073851     -1.17972142105924
  C   6.32354611209249      1.11598066408013     -1.39625899564970
  C   4.98038951911946      0.68164966873364     -1.39120295652603
  H   0.97794695810259      0.31148209509267      1.41138426822016
  H   1.20247949513476     -1.37309193701622      0.93270330596437
  H   0.52126724198448     -0.22155687041242     -0.20850901247843
  H   3.34670178088581     -0.29666587482631      0.94069907497774
  H   3.51951500551443      1.93609209844435      0.55737455609699
  H   2.00232373854905      2.01142433087410     -0.32304933717686
  H   4.03585570724682      2.59910401882793     -1.74256008803895
  H   3.29289500450059      1.21336705039287     -3.71322151058891
  H   0.93406444259948      0.97435542847689     -1.74965013599814
  H   0.30986804162148     -0.24789688046695     -3.83442717517465
  H   2.63967507525481     -1.15500222718317     -3.22415611119759
  H   2.99226075076970     -1.95499554685125     -0.88163612285144
  H   8.35055267282739      0.26719274883927     -1.17642473554540
  H   6.60959436735770      2.13508269484931     -1.61693336492745
