26
Coordinates from ORCA-job 26041optt
  C   1.15582443935365      0.18282215470487     -0.66113703609574
  C   2.57392786955590     -0.02371391181749     -0.19470521335086
  C   2.81973626769599     -0.90987067374777      0.99079952822362
  C   4.18100244752334     -1.57720465006672      1.13866482035305
  C   5.15011039108145     -0.42585186709687      1.23406624573922
  C   6.56866188524002     -0.50796495186049      1.27984200579836
  C   7.24113254615664      0.71674685551879      1.38757638175151
  C   6.59099368073210      1.97922386758434      1.43489089210389
  C   7.62834871938089      2.91627892776656      1.53708580434016
  N   8.84237275097400      2.34814201341808      1.55911201531725
  N   8.56558566328487      1.00857865061798      1.46895226548218
  C   5.16533763387348      2.00028370502221      1.36776410948852
  Cl  4.32783063826529      3.53290654296580      1.33924400002833
  C   4.47994684431472      0.79091286263825      1.26410952675556
  C   3.01482255348208      0.58538263383577      1.10999844617586
  H   0.82658944993283     -0.62498228664525     -1.32056612071887
  H   1.04954833055113      1.12705108400096     -1.19989502924229
  H   0.47712623112562      0.21151454665286      0.19474247125084
  H   3.33282556829394     -0.04051562005050     -0.96999412310582
  H   1.94975489651521     -1.37934520190754      1.43447034277011
  H   4.40317875200988     -2.23869265487511      0.29070845480617
  H   4.20443952666388     -2.20812446988498      2.03837014364165
  H   7.09476004092015     -1.45397244824999      1.25311189348760
  H   7.54118330840064      3.99055857749244      1.59454883735899
  H   9.32412097152863      0.35389753826296      1.46276372832803
  H   2.31183859314362      1.21693877572083      1.64047560931267
