32
Coordinates from ORCA-job 26049optt
  C   1.63222679600102     -0.46524932360467      0.76975063364872
  C   2.77434498677816     -0.49742239278002     -0.22520937458664
  N   2.38658703898954     -1.29840686280844     -1.39443376937903
  C   2.96196049693311     -1.01568518913714     -2.61663934065291
  N   2.43009527075741     -1.79642780039303     -3.65784205096165
  N   3.87222435245617     -0.16516788939203     -2.86111796546941
  C   4.24075243777859      0.76269691898264     -1.79908808360219
  C   3.18211638356353      0.90024570417474     -0.70357564168362
  C   3.57026655402774      1.84736046724420      0.40540974089688
  C   2.85512781346151      3.02725505071250      0.51886755179993
  N   3.11739023172510      3.97580702580123      1.50013796209255
  C   4.04795895082860      3.58795047190601      2.33047558773231
  Cl  4.36676670724501      4.75948770420590      3.65297789419957
  N   4.78769041885501      2.51833565295459      2.38806599721003
  C   4.58172207759987      1.60481588634493      1.34004857265848
  C   5.45245762779365      0.40074679764324      1.45505694345643
  N   4.97540154893237     -0.48728133222297      2.54420994855176
  H   1.32948965055707     -1.47947240689551      1.04083954680784
  H   0.77394910329224      0.06738554119157      0.34971740714401
  H   1.95399706012315      0.05420725184926      1.67110582815136
  H   3.62362008444639     -0.98523419648179      0.25534527176991
  H   1.40752499704457     -1.53969714961901     -1.44955778728979
  H   2.37321923163304     -2.77645018341334     -3.41588602388119
  H   2.97139949968828     -1.65253330918671     -4.49872382324437
  H   4.41118241782481      1.74365870895673     -2.24750010679795
  H   5.19723559076321      0.45313110194700     -1.37063020806942
  H   2.28922203588354      1.32257686954587     -1.18279362138746
  H   2.05582099111806      3.26223372658924     -0.17425425492804
  H   6.47576311221853      0.74751096639943      1.65580106272460
  H   5.47724018565596     -0.17974343969192      0.53332089683007
  H   4.75154452068209      0.11936999828030      3.32888583693170
  H   5.73270182534253     -1.08800436910282      2.85823536932750
