23
Coordinates from ORCA-job 26056optt
  Cl  5.82076438379337      2.81749315090616      0.25417977454013
  C   4.80452091942461      1.39883438951490      0.19524649724743
  C   3.49567477483276      1.44138722097857      0.43240304612575
  C   2.70845449321170      0.17147141771176      0.33626420249965
  O   1.50293495927195      0.20567630288246      0.58146342683685
  N   3.38703113128544     -0.94316854355143     -0.00847690668198
  C   4.66968296410919     -0.89262714599212     -0.38333741659398
  N   5.48052395464809      0.24545809596106     -0.09623311125853
  O   5.44779904350653     -2.04920815404505     -0.04526258859631
  C   4.87560693120451     -3.24288763292709     -0.17327372193653
  C   5.61150462114363     -4.40422802960333     -0.12088703759103
  N   6.99903010998416     -4.40346582939814      0.10057470081784
  C   7.86272522992162     -5.34324948474111     -0.36980656563070
  N   9.12590351644595     -5.41260198827990     -0.21374311433459
  C   4.77104332672794     -5.52447316983071     -0.28701608397880
  N   3.50119863785907     -5.26789337098993     -0.48087147444411
  S   3.21888610996296     -3.64086016201127     -0.41430908395867
  H   2.99166430397344      2.35109408694557      0.71571713152646
  H   6.31977932507914      0.34933701062539     -0.64617830683158
  H   7.37671478015018     -3.57231169430407      0.53240617913633
  H   7.36577123954091     -6.12389036339052     -0.94495280273187
  H   9.47020151999608     -4.63240865409349      0.34739638680805
  H   5.10958372392651     -6.55447745236758     -0.26530313096981
