26
Coordinates from ORCA-job 26066optt
  C   1.26462344523942     -0.02628346989478      0.43016563683357
  C   2.77495056015599     -0.12939142798994      0.23736228639859
  O   3.30000683202613      1.07413635526356     -0.31305306451122
  C   3.18671735857605      1.14859962939493     -1.71707946175817
  C   4.07717319308695      0.10775572983354     -2.36431161280312
  C   3.83713886693471     -1.22504160893336     -1.72111658794171
  C   3.16336234115779     -1.36790439522540     -0.56248337881234
  C   2.77007269800787     -2.63998444552410      0.00783126764975
  C   2.29181921194015     -3.78527473055765     -0.63048841869026
  Cl  2.05440817572716     -3.77429028882818     -2.38353425548988
  N   1.90524031007587     -4.88249641051057     -0.03871024415498
  C   1.97341707389809     -4.96115838175418      1.31372211661629
  C   2.43745084199241     -3.90197769618440      2.13047566168735
  O   2.57257278622915     -3.89539900427784      3.36214441383813
  N   2.77357719882703     -2.74583598712666      1.41438707676091
  H   1.02602942791198      0.86701783827708      1.00890474144929
  H   0.89697849060141     -0.90598235184571      0.95771845170693
  H   0.75731352000666      0.02419360253192     -0.53443846074107
  H   3.24292725958843     -0.17659469723886      1.22422086545903
  H   3.47133127570714      2.16494086848139     -1.99367520771794
  H   2.14634546755011      0.98695046340954     -2.02587088421840
  H   5.12643770576596      0.41233152139665     -2.26727051259770
  H   3.86332379016468      0.05772225973251     -3.43786707155078
  H   4.18208111559256     -2.10661895137747     -2.24380134154488
  H   1.66161309562677     -5.88082243052079      1.78806675585369
  H   3.30408795760950     -2.08459199053122      1.95870122827891
