29
Coordinates from ORCA-job 26071optt
  C   1.35316069894023     -0.12533239826880      0.46961613505208
  C   2.76768135826641     -0.49599778884574      0.10731020309119
  C   3.78456207435917     -0.18015677534552      0.90896170398033
  C   5.21618821474253     -0.59678225407437      0.72579668691079
  C   5.36965135857476     -2.02796662717732      1.17607421414637
  C   5.83300559414027     -2.44768378663365      2.38843212125174
  Cl  6.29997304049810     -1.23060130588847      3.60463216664653
  N   5.94207960899597     -3.71253584045807      2.83870520699870
  C   5.50821045218184     -4.65398262142863      1.97044536039278
  N   5.56726347950122     -5.97204665177527      2.48593658845870
  C   5.00500028887215     -4.39918827549723      0.71862883757840
  C   4.87585917743725     -3.03820666918277      0.29799180558067
  O   4.93211734527848     -2.76974631973994     -1.08629358408184
  C   3.79174420370676     -2.27314748288755     -1.69795396042574
  C   2.40031985225427     -2.65248960253975     -1.31305363403436
  C   2.85357242688074     -1.19900718582163     -1.20726706996717
  H   1.31450134758424      0.43302990083524      1.40501160679472
  H   0.73726595598562     -1.02341436696730      0.57347507458756
  H   0.89350558036258      0.48279378276061     -0.31689887768274
  H   3.55202209509440      0.32038870275125      1.84563924020722
  H   5.87552145869482      0.05696766332294      1.29297190414851
  H   5.49398153853348     -0.54065097460090     -0.32925622770699
  H   6.25729048661693     -6.00514778781154      3.22474311194092
  H   5.77612787410993     -6.65274722141386      1.76946306131618
  H   4.65464531477109     -5.20777288033251      0.08742487333677
  H   3.98410555573390     -2.21109508399855     -2.76293989738794
  H   2.32293497619976     -3.15821228235466     -0.35822429089808
  H   1.69006268510662     -2.94873848680940     -2.07480666710163
  H   2.48664595657640     -0.57552937981654     -2.02156569313370
