30
Coordinates from ORCA-job 26086optt
  C   0.84624482378781     -1.04675761086656     -0.53133878149195
  C   2.23319997596524     -0.46108668308290     -0.25526638030976
  C   2.89402848973070      0.13147923425995     -1.47351706332488
  C   2.91308745926454      1.49918151034144     -1.72345332072712
  O   3.59114066493400      2.01204860026128     -2.82051226255681
  C   4.13573095550356      1.20987347673272     -3.81662237637692
  N   4.66641126272787      1.80712548134621     -4.82837466696784
  C   4.06989821269385     -0.18528231928230     -3.61343488170766
  C   3.48693500982198     -0.68118923921990     -2.44322826463038
  Cl  3.49060756433090     -2.42543001362217     -2.23560414117048
  C   2.44692626860866      2.60848304899364     -0.80138523665472
  C   2.64281006651938      3.98319534104772     -1.45316218518387
  N   1.01796091439140      2.40952842989791     -0.44487819601778
  C   3.29706228837904      2.65147775804183      0.49307729000727
  N   2.60431482586683      2.50104124300178      1.65960626751051
  O   4.48959013433431      2.87219945294090      0.47568657325958
  H   0.41876090891236     -1.48630133385791      0.37403761952552
  H   0.90404909829306     -1.82232796317676     -1.29478009926957
  H   0.16384530233784     -0.27237580397184     -0.88419475538978
  H   2.87603995722441     -1.25226249495001      0.13719248581407
  H   2.14933669919405      0.28879426911173      0.52724034783829
  H   4.56994018027190      2.81162187046655     -4.70094671791442
  H   4.50507388402443     -0.83107248886989     -4.35787317688968
  H   2.09113108592599      4.02140547494382     -2.39210669518792
  H   3.69434600835797      4.17184462851325     -1.65018886323270
  H   2.26253643574659      4.75125151285720     -0.77313462704553
  H   0.57821580995917      1.92316762959883     -1.21746108007324
  H   0.55955426860334      3.31115473226304     -0.35140621203489
  H   1.66352842394742      2.14587445756412      1.59770727908905
  H   3.14969302034136      2.35933779871627      2.49332212111365
