26
Coordinates from ORCA-job 26081optt
  Cl  1.87217999729158      1.28528247293455     -3.21319791343132
  C   3.04733262226179      0.80033727222051     -1.98161653462393
  N   3.80844981320636      1.77348000132853     -1.52838324568667
  C   4.70723449054784      1.47437441105305     -0.55201210173212
  O   5.42441702208219      2.30743048048021     -0.01780870816726
  N   4.80705929870845      0.12115099761574     -0.13080762620469
  C   5.62025249072752     -0.16308327828555      1.04427620233273
  C   6.31580191654440     -1.50968854965415      0.85833473655631
  C   5.32732240732844     -2.58336235193912      0.51866406573610
  C   5.55001558385808     -3.91726799573713      1.18808161403282
  C   6.92590017311613     -3.85891095301141      1.85035786506194
  S   7.11477726543004     -2.14441640700991      2.33739738138820
  O   6.28836031191104     -1.90326856258873      3.49751739678740
  O   8.51296742547910     -1.79215726995003      2.40283782819221
  C   4.23549182051091     -2.21983052637810     -0.23576960617071
  C   4.01722399624223     -0.89869413308342     -0.65747879618251
  C   3.06237223966292     -0.51982224649951     -1.62239914947937
  H   4.98658022084628     -0.21983025337391      1.93435303809869
  H   6.32438032024133      0.65541647301911      1.16050848201349
  H   7.13162556532610     -1.40663728649301      0.13115656039688
  H   4.79025398439371     -4.10803584724963      1.95543590923809
  H   5.50488629165868     -4.75181278407595      0.48097139868321
  H   7.73613093172548     -4.06143877141656      1.14993569215067
  H   7.03773730028800     -4.47190773757742      2.74266423602885
  H   3.52212556803399     -2.96567953265791     -0.56866897103957
  H   2.41212094257735     -1.25162762167022     -2.07434975397944
