29
Coordinates from ORCA-job 26096optt
  C   3.14863300973039      0.54504914976835     -1.32170569449006
  C   2.66079984700103     -0.10752793571131     -0.03678031256007
  O   3.19390254743121     -1.41889019509759      0.08094897692265
  C   2.95426098920468      0.70361820323099      1.26025807882771
  C   2.40935909790826      2.12459030921895      1.11740151722352
  N   2.36967732856044     -0.02093224822995      2.39198332139622
  C   1.34369759273549      0.51611868804120      3.20310705974251
  C   0.11311263996025     -0.13263051742027      3.23672580975930
  Cl  -0.62674573284169     -0.57966196695305      1.56119556917890
  O   -0.84235165179972      0.23779249015396      4.11578232567930
  N   -0.96053728219743      1.63950795156064      4.40524021398385
  C   0.16519938368975      2.23139712633076      4.38878001858856
  C   1.46167493432301      1.65242053039679      4.03815228547136
  N   2.48351817228121      2.38370140773695      4.45248731471351
  O   3.70212153542202      1.79424632034686      4.04485824103165
  C   4.43175905137760      0.73602854049895      1.40957527818069
  C   5.63067619447276      0.67060060869400      1.43663701673764
  H   3.01476549028957     -0.16350646709552     -2.13937086001111
  H   4.20872183333379      0.80047307915356     -1.25024417296393
  H   2.58471307619351      1.44775563799248     -1.55446038392021
  H   1.57759008938199     -0.23379886918476     -0.06691598870924
  H   4.12632965674868     -1.32933908045980      0.31929486815108
  H   1.33530524067817      2.07631454867703      0.92359478261201
  H   2.90972051716655      2.63213975431501      0.29376053011679
  H   2.58016200611062      2.68996740223963      2.02952844751152
  H   2.14780209763063     -0.97013653494504      2.12200388378040
  H   0.13850109246914      3.28459235017553      4.65063869693439
  H   4.34764802738786      2.45252975145322      4.31071196465181
  H   6.68898321535003      0.62957996511235      1.52581121145909
