28
Coordinates from ORCA-job 26093optt
  C   3.33085995109129      0.19901084286055     -1.12258691956272
  C   2.36589272711418     -0.14725025766896      0.00475877199471
  C   2.84767915395822     -1.29840117794237      0.86018302889770
  C   1.92714977696317     -1.70292505102264      2.00222968461968
  C   2.32741241135824     -3.16994708203318      2.21892506350828
  C   2.66916543980314     -3.58495097139198      0.80270517795749
  O   2.69443975800682     -4.68267907720100      0.32591948916448
  O   2.93544867352263     -2.48319828913562      0.04703708760508
  C   3.50464768759381     -3.30784854360248      3.15332844803914
  C   4.69950216225110     -3.90564658425436      2.80797785543658
  C   5.78124190514012     -3.97388913838596      3.69656044945940
  C   5.65385411630265     -3.37095958767822      4.99053638955975
  C   4.45345854667652     -2.81186023458553      5.32969797878397
  Cl  4.28771928753519     -2.08121068598269      6.92946666432859
  C   3.33881291259969     -2.76094170895244      4.47999818557342
  H   2.95770121203699      1.02838512477314     -1.72552535572678
  H   3.47647091272574     -0.66277228616338     -1.77375710235194
  H   4.30546698059304      0.48375858790634     -0.72136529015824
  H   1.38515641141585     -0.40936814221909     -0.40219191088555
  H   2.22189883649546      0.71539751887238      0.66200553710830
  H   3.85083144362927     -1.09356427370986      1.24970025691455
  H   0.88378345584454     -1.61977276905355      1.68060932674310
  H   2.08390967560124     -1.09792086362848      2.89422711047388
  H   1.47765088163994     -3.76704724480282      2.58325752718301
  H   4.80787007706887     -4.34348319526939      1.82053958894847
  H   6.69895586331193     -4.46859741930857      3.40991469905694
  H   6.48060405273478     -3.34502650245161      5.68758541127385
  H   2.38941568698550     -2.37729098796818      4.82826284605481
