31
Coordinates from ORCA-job 26109opt
  C   0.86695656771284     -1.42018986775891     -2.05025892131695
  C   2.37771589123232     -1.29632197488897     -2.14923280378306
  N   2.94003144963660     -1.15433626928639     -0.81384371867410
  C   4.39652270617298     -1.28615024142241     -0.75627121772875
  C   5.06024215308031     -0.22065576611474     -1.61918448179389
  C   4.80649892494076     -1.08317720427554      0.73178634700998
  O   6.18527192692758     -1.34866117726861      0.94116176882654
  C   4.55343568610695      0.28313722204980      1.20028399284447
  C   4.36304932530573      1.39276177174065      1.60998545226160
  C   4.85484138881466     -2.71117812441084     -1.15991172192290
  N   5.72708566558295     -2.77079764701911     -2.11533543989501
  S   6.23827903414582     -4.30243909408777     -2.66009024074671
  C   6.23619051162680     -5.23103934055228     -1.19105694744017
  C   5.26653619160012     -4.94447126902209     -0.29380912313301
  Cl  5.20973674982437     -5.91696124370225      1.17926545080850
  C   4.33260739000362     -3.84883316155932     -0.38493001668549
  N   3.21042441707156     -3.72839416039957      0.32590219477278
  H   0.41421894527418     -1.51123226030173     -3.03924383369452
  H   0.44692616550952     -0.54633702032165     -1.54957128474458
  H   0.60181902481304     -2.30632924903514     -1.46997490101085
  H   2.63813014911331     -0.41813261316158     -2.74549017679124
  H   2.78117033089128     -2.17420384904652     -2.67693899832532
  H   2.57156352566632     -1.91630901431592     -0.24188519260696
  H   4.59924709500916      0.74129327929778     -1.39223083994629
  H   4.94590258912814     -0.44704573537784     -2.67684010429050
  H   6.12653696725066     -0.17590457448891     -1.40356658022492
  H   4.19096586025825     -1.76602260311273      1.32569863338384
  H   6.35785658551176     -2.23914661178769      0.60831052429100
  H   4.18660447608714      2.37751468186775      1.96732602956782
  H   7.05886954239056     -5.89845935146339     -0.97286766355734
  H   3.06976276331021     -4.56897753077384      0.87881381454614
