31
Coordinates from ORCA-job 26113optt
  C   3.13662052329920     -0.27923805825502      1.25606979801421
  C   2.57756216328653      0.17760375341296     -0.08432024968888
  C   3.06150379474549     -0.69935920490813     -1.25170480509241
  N   2.47940313717366     -0.19632646385565     -2.50069173544565
  C   1.32386779017494     -0.58509195797639     -2.83657205658752
  N   0.52462881395064     -1.49714850398580     -2.14450241910668
  C   0.70017448026931     -0.06004248646511     -4.10521165138628
  C   -0.29755759155982      1.06262992377881     -3.81926409641336
  C   4.55304881403728     -0.71151369032750     -1.33050703537924
  C   5.37703233349379     -1.78521353625254     -1.51739630207415
  Cl  4.69206394212420     -3.38297592149400     -1.72376329059883
  C   6.76373901684641     -1.65181591543908     -1.55006305913216
  C   7.28532170516438     -0.35314474291368     -1.36899838646644
  Cl  9.00939487275937     -0.12756913354910     -1.37403597280839
  C   6.48719463303502      0.78790800206758     -1.17952291954729
  O   6.81263892396699      1.94923199147382     -1.00753725687672
  O   5.09701201259457      0.54438219974072     -1.18922402503839
  H   2.73480961017855      0.31941050720040      2.07566954777030
  H   4.22268384883159     -0.18397274234621      1.26294381931117
  H   2.89379995862169     -1.32770430094303      1.44831729978033
  H   2.88654566645909      1.20239755108854     -0.29232498653441
  H   1.48208314942675      0.17058737653070     -0.06668642327227
  H   2.75474988979695     -1.73602638974672     -1.07099834110895
  H   0.71171680170806     -1.61592629594375     -1.16233444134797
  H   -0.45594659644060     -1.48406210730766     -2.37002531096940
  H   0.20729113385980     -0.87847173330128     -4.63858550426670
  H   1.51093192349945      0.31250578456533     -4.72767857926526
  H   -1.12267046983510      0.72036419273828     -3.19039567622975
  H   -0.72440699530251      1.45295243974659     -4.74414920469531
  H   0.20380549526033      1.87938859630093     -3.29942920734203
  H   7.40895721857397     -2.50175913363399     -1.70707752820151
