20
Coordinates from ORCA-job 2612optt
  Br  0.99400434263860      0.35113746885556     -0.72268393904150
  C   2.71618635128766      0.17785345367254      0.24422264420480
  C   3.38542128956383     -1.04594450399487      0.13896527497835
  C   2.94834129291630     -2.40120211299331      0.06955695967296
  C   4.08702818709875     -3.20362457920386      0.03415620212217
  C   3.59329791919250     -4.52251243840491     -0.03105418772982
  N   2.26419821241138     -4.52927924596428     -0.04234138240216
  N   1.88202453109350     -3.23315060470095      0.02577853847517
  N   5.25845995387046     -2.46010996262777      0.05817814151483
  C   4.80980756391589     -1.22535833956806      0.10809095557531
  N   5.66317652657706     -0.11422963511617      0.07291192721449
  C   7.02826561664988     -0.10263919877185     -0.07921283955302
  C   7.37615012636811      1.21622022031268     -0.11810408574023
  N   6.26844668649485      2.02005673555694     -0.00259544705937
  C   5.26153879464872      1.18693573366565      0.10815191303277
  S   3.60085108907014      1.67456825742421      0.37764648797410
  H   4.12283426145206     -5.46153143074215     -0.07371040127684
  H   0.90705008591405     -3.00096094614531     -0.01154825742449
  H   7.57461874361868     -1.02556138760915     -0.15074735455187
  H   8.36229842521746      1.63733251635505     -0.22666114998565
