24
Coordinates from ORCA-job 26137optt
  C   1.20690664675229     -0.34582255946062      0.15332939870961
  C   2.65214669885297     -0.03137743254507     -0.05719334186571
  N   3.08027825004002      1.14591257780547     -0.26639061174931
  C   4.47543512488384      1.33902519209444     -0.47940087876268
  O   4.90061368054550      2.46532043214873     -0.67223202599061
  C   5.28679236335196      0.15049082467186     -0.47922031072789
  C   4.73177025937233     -1.06109788752352     -0.21645930165080
  O   3.39127536698927     -1.15022932092667      0.02356658252847
  N   5.37237583786761     -2.26727680247701     -0.09873816850041
  C   4.84555138428479     -3.43195337878336     -0.86137841751557
  O   3.81806948752523     -3.24789653979820     -1.50955480589318
  C   5.62531289991452     -4.59417118445087     -0.77586373154657
  C   6.85546041634738     -4.66158490177747     -0.10800620424536
  C   7.30861688454867     -3.51869391092577      0.55313520658822
  Cl  8.79392812914465     -3.56373935589755      1.48072441810924
  C   6.59430896426873     -2.35401317308602      0.57045703752520
  O   6.90917099673608     -1.26625798254093      1.32347639749398
  H   0.62412378449347      0.56763486951666      0.08999809390844
  H   1.07242232064497     -0.81178619204816      1.13048585581213
  H   0.88161496433652     -1.06453675372706     -0.59946056484173
  H   6.34233675596775      0.23316847699587     -0.67889152723921
  H   5.25679720132513     -5.43533804003268     -1.34511416865350
  H   7.46767908998781     -5.55105729767271     -0.12846334675287
  H   7.72701249181840     -1.47271965955933      1.79219441526012
