27
Coordinates from ORCA-job 26135optt
  C   2.92962665273426      1.84815642262145     -0.37716493316001
  C   2.47449939281809      0.41799309670208     -0.07268203576917
  C   2.66801811414635     -0.45281711748915     -1.24977746407808
  N   2.77600199281724     -1.11651138179884     -2.17836554568468
  N   3.06638431193228     -0.15826691228412      1.13763686412213
  C   2.28527569818896      0.15555413882052      2.32715201067594
  C   4.46191203299498      0.07007291991330      1.28343660055534
  N   5.19941265320166     -0.35210639388875      0.20964459140664
  N   4.86758890071859      0.66163052114110      2.33646812238186
  C   6.20644841278455      0.87286328755192      2.65909762605694
  C   6.52716394662136      1.33557142587015      3.93205204444999
  Cl  5.30743053739007      1.59715230789289      5.13357187336703
  C   7.89183197856019      1.59982262931124      4.27279525120944
  N   8.38811640288983      2.02503348230273      5.37233668909607
  O   8.79148733229267      1.37113768763884      3.27264183453159
  N   8.42478005922865      0.86118606122869      1.97296256104058
  N   7.17000568030511      0.65730458195727      1.75411986793650
  H   2.37286264752308      2.25498684502196     -1.22113096151435
  H   3.99299177917527      1.86043493586017     -0.60999173820326
  H   2.75669116779931      2.46902060239174      0.50147645326495
  H   1.39472219895272      0.42028324685859      0.09222201582350
  H   1.27831550380160     -0.24201458949971      2.19341178025369
  H   2.23916135524183      1.23084748006446      2.53227758682538
  H   2.75238426981597     -0.31094567992150      3.18895846913209
  H   4.86859197806901     -1.17061087008959     -0.27619714135615
  H   6.20188237725914     -0.24435543511313      0.35892827056446
  H   7.63141262273710      2.16457670693566      6.03511930707149
