28
Coordinates from ORCA-job 26149optt
  Cl  2.34557737642723     -0.74236579264344     -2.53013020034181
  C   3.26245324448265     -0.16130006443784     -1.13586967209761
  C   3.92039947569653      1.08357992058145     -1.27998353388019
  C   4.70776831161748      1.45604502623145     -0.14953893329116
  C   4.76968550977462      0.63410598630922      0.94173730625079
  N   4.11771901769890     -0.56069552601212      1.07678837088686
  C   3.36397669609339     -0.93631233248816     -0.00938514508740
  C   2.69956702023496     -2.27019833433244      0.07537342899441
  C   1.90302365717614     -2.81678613446923      1.23658119787801
  N   1.42476227648675     -1.91859722703079      2.28448160465303
  C   0.77132099032371     -0.78196627581905      1.58653821588250
  C   0.32830169782307     -1.36514036827826      0.27691436848325
  C   -0.73583703150210     -1.36725315732101     -0.51316901668306
  C   -0.61395224203234     -2.47081457085392     -1.54005743077230
  N   0.56663367100908     -3.26160930619887     -1.11040754368507
  C   1.22676363883946     -2.48486077202057     -0.07778793725094
  H   3.80755189022528      1.68847952987256     -2.16540753090591
  H   5.26834809346386      2.38459964621729     -0.15024857506885
  H   5.38013099575438      0.92444588517814      1.79349095374936
  H   3.26630704183075     -3.08134361749732     -0.38448678020152
  H   2.11910019465860     -3.82533472400690      1.56178013533130
  H   0.69728737066745     -2.42778324829827      2.77831101644982
  H   1.51672218270080      0.00091792480791      1.43481771696919
  H   -0.04527787928136     -0.38437584845317      2.18843965391815
  H   -1.60624097951911     -0.72913503942940     -0.43797986826039
  H   -0.47258604874266     -2.07084943828944     -2.55209851480930
  H   -1.51511845951036     -3.09392282865111     -1.55653480292537
  H   1.20661228760282     -3.34452931266666     -1.89016848418580
