21
Coordinates from ORCA-job 2614optt
  Br  0.94074726598233      0.47884112284852      0.01681021818483
  C   2.82879988202591      0.28768045196351      0.02405030391308
  C   3.40245794413148     -0.95733623848994      0.02688637792607
  C   2.85421489117891     -2.30290317679896      0.02712669274417
  C   1.76079909994910     -3.06283991581443      0.02579900770762
  C   2.26602015846081     -4.48921630592817      0.02916317750766
  N   1.56090166962862     -5.54926789660418      0.02925916214380
  N   3.67430857855880     -4.50642979654613      0.03255782691952
  C   4.01615528603007     -3.24495528811934      0.03147842775976
  C   5.19965197427331     -2.47311620945653      0.03363113457636
  C   4.82672616400136     -1.11326745383140      0.03103713058624
  C   5.72089503177097      0.03797359834596      0.03252602162014
  O   6.95073901658462     -0.06102273582709      0.03530203564794
  C   5.01782686916257      1.31950039997727      0.03045016262052
  C   3.63843948210019      1.43093081844947      0.02618699604143
  C   5.79593759864555      2.51816522736335      0.03272189673296
  N   6.38296227508514      3.50743864866952      0.03402975407567
  H   0.71665341079514     -2.78783613691409      0.02318988963004
  H   0.57425564391566     -5.29388325671874      0.02657572801694
  H   6.21847571678364     -2.82520058690837      0.03675650399654
  H   3.18203204093578      2.41174473033979      0.02446155164875
