26
Coordinates from ORCA-job 26143optt
  C   1.46634827418909      0.64534922958506      0.51132843189334
  C   2.39194429283624     -0.51599389646850      0.15229784611760
  C   3.02745553973226     -0.29215120381974     -1.22069811019896
  N   3.47400823259565     -0.65780663297064      1.12680535454479
  C   3.13170504871965     -0.56411608579924      2.51242883752562
  C   2.63355121579684     -1.63768514524008      3.17035879107931
  N   2.32286237658858     -1.55583963822485      4.54519407858399
  S   1.60481103021499     -0.12521523497047      5.03613487360948
  O   0.36035560760917      0.03384889820940      4.31981347443882
  O   1.52772790273061     -0.17021412759350      6.47093643801525
  C   2.83191659400638      0.93758133671289      4.46781510956142
  Cl  2.75259060311656      2.52779185140945      5.14094066111068
  C   3.30019680648418      0.71550452071258      3.14277064507842
  C   3.95282780299355      1.74410739551269      2.43143244286295
  N   4.47474998430201      2.59482033119207      1.84482138153650
  C   1.58296111464956     -1.76878638218940      0.08213477708711
  N   1.01245228205953     -2.76185302479823      0.00304482354756
  H   2.05709339228311      1.56080353043872      0.55368686756538
  H   0.98838140379255      0.48631343068548      1.47827260561654
  H   0.69620633390730      0.74266909044863     -0.25453264488404
  H   3.59693638878217      0.63573198493399     -1.17534794939904
  H   2.26446694344723     -0.22386531246547     -1.99626828585168
  H   3.70499724726112     -1.11085151817653     -1.46858474472152
  H   4.00566527105324     -1.49808488035301      0.93786024461871
  H   2.45095354214368     -2.58159651931451      2.67702648272370
  H   1.81683476870468     -2.34246199745680      4.93132756793800
