26
Coordinates from ORCA-job 26147optt
  C   1.03920459696058      0.11932862544814     -0.07550225233973
  C   2.53947882013438      0.09875966968612      0.04963093825347
  C   3.30809028391692      1.26096018840995      0.11580844056707
  Cl  2.53532122545106      2.83637181549712      0.05636678303872
  C   4.67937312532623      1.26836674585634      0.21815693259625
  C   5.41796637240657      0.06748907451989      0.27644550628002
  N   6.76021793820846      0.11624665809891      0.42501380136764
  C   7.55661030231825      1.33371867659666      0.19238480260836
  C   8.76482988034586      0.42542286947008     -0.05655163060798
  O   9.79074260656347      0.65923667731541     -0.75279276175862
  C   7.81763364808040     -0.78054223592579     -0.10957529517699
  C   4.63702278607860     -1.11453738093635      0.24710840543045
  Cl  5.43620268999179     -2.65241012073139      0.43475468010429
  C   3.25192402934634     -1.11089291103257      0.11938286072868
  C   2.51804059235353     -2.42638538775119      0.08183928258241
  H   0.66512596747220      1.13860544605100     -0.09148633918085
  H   0.55892025833769     -0.39700002093628      0.75927298848696
  H   0.70545971466477     -0.36882123087180     -0.99483378676019
  H   5.20664405526465      2.20959509473974      0.25240219625125
  H   7.55966747670640      2.04266413692746      1.02919449886679
  H   7.21776578526852      1.86650238922219     -0.72155295345210
  H   8.03153993094070     -1.65256033042509      0.51035500019908
  H   7.57378394240004     -1.12186719052812     -1.13558213325243
  H   2.93788977453281     -3.07939455804872     -0.68411428285041
  H   1.45894804773937     -2.29429516141147     -0.11805026429918
  H   2.62659614919031     -2.95256153924023      1.03292458231701
