26
Coordinates from ORCA-job 26156optt
  C   1.07379483490393     -0.18169145670837      0.21684687860207
  C   2.55224442691375      0.00737298309571      0.21106865596671
  C   3.19370287224506      1.18055145461480      0.15641782389447
  O   2.40154603347450      2.34586656670920      0.08050065190026
  C   1.71870860104690      2.61005908372245     -1.03912287902092
  O   1.59780162840898      1.91638539449248     -2.00039835614063
  C   4.65332016250963      1.32367643836145      0.15475882146904
  C   5.36475974029139      2.49812090415720      0.25378780833856
  N   4.78267300770040      3.76030621356426      0.48502599682468
  C   6.82364470384042      2.51808877914993      0.15601842292034
  N   7.57379492031580      3.60553121154414      0.25642090939848
  C   7.43487975606716      1.25745410417125     -0.08543194555059
  C   6.71774845212277      0.09214929798653     -0.13163749117254
  Cl  7.58731884718577     -1.41486901352245     -0.36068203964235
  C   5.31385409726613      0.03787639937288      0.02401576037148
  C   4.59163645442583     -1.13935040574963      0.05016701789652
  O   3.21023433923218     -1.16978902743411      0.24820286020971
  H   0.55452560826337      0.72184642251584      0.52947839131452
  H   0.82603093386121     -0.99139080611691      0.90424424990819
  H   0.72422058426773     -0.45613910860481     -0.78084686139415
  H   1.25002064789287      3.59824483260520     -0.92966545335519
  H   3.78361343244695      3.78385711489497      0.38686678145359
  H   5.22697300585004      4.47936849570097     -0.07250925852623
  H   7.01732995738143      4.39683004147961      0.56448231339095
  H   8.51161093082348      1.24104574093831     -0.18744907040660
  H   5.00601202126224     -2.12640166094093     -0.03955998865037
