30
Coordinates from ORCA-job 26157optt
  C   0.95131252024153      0.03728309944743      0.59314986992595
  C   2.34996346014705      0.20820151619242      0.08338073425918
  C   2.86845979961860      1.43426989100177     -0.32500154485166
  S   4.54072232213330      1.28726608938522     -0.85354315333053
  C   4.53174533497735     -0.43570760274519     -0.53382922710176
  C   3.24783287584262     -0.85774476940593     -0.03957166695809
  C   3.05484114746899     -2.25248243319576      0.24615388919445
  C   4.11908544217049     -3.11434071351783      0.09060982539512
  Cl  3.88370417252237     -4.82717966443151      0.42372017860045
  C   5.38279251676029     -2.70603602901765     -0.30709438291487
  C   5.55392299583344     -1.32609089904614     -0.65907066112799
  N   6.88735741560935     -1.09486329956828     -1.13489478385216
  C   7.62418076883724     -2.22937656367771     -0.58974688274206
  C   8.88219866268009     -2.84562676629269     -1.16595404673817
  N   8.81348399880771     -4.23978212118542     -0.64452204563735
  C   7.43143993396300     -4.51444179108226     -0.13088571734172
  C   6.63717377580248     -3.38215993365514     -0.74961981726656
  H   0.46082823390609      1.00385703894340      0.71838862988190
  H   0.94283993986722     -0.47587595310710      1.55996369998344
  H   0.34311704935543     -0.56274770361626     -0.09198545207141
  H   2.40772274069908      2.40574128892814     -0.25416147834326
  H   2.10380435565376     -2.62241419746172      0.60435079238247
  H   7.24136795261096     -0.18786833236488     -0.85036107150071
  H   7.78021173822652     -2.10050427195882      0.49354710653929
  H   9.81014240139958     -2.36926743787579     -0.84491381514294
  H   8.85148320128585     -2.84111882352949     -2.25879068104437
  H   9.48847802799148     -4.36595753336115      0.09534146545577
  H   7.37883707366826     -4.46734627817342      0.96157972076332
  H   7.09944359079012     -5.50108304945408     -0.45155894979868
  H   6.58150655112964     -3.59060275617409     -1.83268053461705
