31
Coordinates from ORCA-job 26159opt
  C   1.69800837527818     -0.98044233822055      1.09397199848762
  C   2.64364675740816     -0.36900574003431      0.09058583662033
  C   3.17657564376727     -1.13007323939340     -0.86502460805378
  C   4.13873276509521     -0.81452989317075     -1.98274772094018
  C   5.08468000824654      0.34080962555735     -1.83208819263797
  C   4.69931659492918      1.58779946854490     -1.43725420827487
  C   3.27206660716224      1.83563431343267     -1.03685619461052
  C   2.87987579913523      1.11799059105212      0.26451998536309
  C   3.89738972599169      1.44531078688503      1.36322762254984
  O   3.47999619438119      1.04432309628952      2.66120938590161
  N   5.54099715344707      2.64164807110441     -1.34244707353852
  C   6.90754290145832      2.57239924770646     -1.58575549541129
  C   7.55100651093723      1.30823166198275     -1.50366083357604
  Cl  9.27221465914818      1.33944714755811     -1.86135550677617
  S   6.72836094805116      0.00568850429522     -2.33304946149158
  O   7.12591015015911     -1.28610662795405     -1.79554474963729
  O   6.79834417795331      0.08471447577573     -3.78812729199912
  H   1.49289151238213     -2.02412551769425      0.85621932978392
  H   0.74602129424436     -0.43876854602329      1.10953028631577
  H   2.11563646236739     -0.92863564785706      2.10094319125847
  H   2.86095017926199     -2.17190132987990     -0.86484863769338
  H   3.55168512121059     -0.72200654388311     -2.91056340519516
  H   4.75103886749290     -1.70750839554732     -2.12830392533476
  H   2.59975798228313      1.50527734624639     -1.83338561675207
  H   3.11651311278612      2.91110978745193     -0.90693803977484
  H   1.91961148743444      1.54874608187012      0.58860961586602
  H   4.10156621797301      2.52349079410270      1.35097584868764
  H   4.83611925298499      0.92996204871966      1.16252896762514
  H   2.63343503687872      1.46079739072808      2.84679824371744
  H   5.14357428110672      3.53773469425303     -1.11966359417740
  H   7.45953421904406      3.49198868610184     -1.47950575630194
