21
Coordinates from ORCA-job 26150optt
  Cl  0.88665955496024     -0.28481060924609     -0.00966425546747
  C   2.62786660684326     -0.19777790831224      0.01246538887985
  C   3.26874475561956      1.06035891641655      0.08629053313207
  C   2.66684361799958      2.43621327701704      0.17577415039053
  C   3.88492861533091      3.34311397805460      0.16326249775971
  O   4.66283245259860      3.27949034498264     -1.02122716325171
  C   5.10205210039654      2.51827440799923      0.11349155641049
  C   4.66494820279850      1.09740891044697      0.08601243610523
  C   5.43525127244908     -0.04359640009432      0.05262410109622
  Cl  7.17715632831514      0.04541971124235      0.02351044681426
  C   4.81054211155174     -1.33632755913842      0.01343267507640
  C   3.37852482255218     -1.35147578836167     -0.01379036062341
  S   2.79206130588292     -2.99024810606357     -0.06938907974305
  C   4.41522025802383     -3.63943418177459     -0.06612185289371
  C   5.35776810263150     -2.62462018305923     -0.01744354383266
  H   2.09139094851735      2.59127901381614      1.09690296605588
  H   1.99720590567139      2.67041092148460     -0.65972676482802
  H   3.85367748457461      4.31801291509219      0.63748181308221
  H   6.05809577747231      2.81893047771628      0.52198365913341
  H   4.56929849342552     -4.70334419898608     -0.11338959743855
  H   6.42393128238521     -2.80627793923239     -0.01147960585769
