17
Coordinates from ORCA-job 26153optt
  Cl  1.03791683544969      0.03393510356276      0.06199914900477
  C   2.77184255107737      0.04960092119677      0.06423449580287
  C   3.43107220213717      1.27678343418814      0.06507476422210
  C   4.82501368278742      1.32435378431215      0.06707508557764
  C   5.60388184187906      0.12071999562559      0.06804702439945
  N   6.92007548604901      0.14120002075652      0.07003303034588
  N   7.55277771607528      1.31006794084960      0.07112326466378
  C   6.79737523611200      2.41463194504029      0.07000220588220
  N   5.48800147904614      2.51338042281139      0.06810756823554
  C   4.88914716983334     -1.16449179217770      0.06688046402673
  C   3.46518631464209     -1.16269783571544      0.06515649080513
  N   2.82626139716005     -2.36627218797232      0.06452579627216
  N   3.54490981380673     -3.44957023765491      0.06526030063232
  N   4.85165208118719     -3.45072554170525      0.06655461550981
  N   5.54033524671825     -2.30147427724716      0.06746571315210
  H   2.87579987570310      2.20397671393213      0.06430571368105
  H   7.36275107033609      3.34258159019744      0.07115431778647
