30
Coordinates from ORCA-job 26160optt
  C   1.06361464242499      0.71612998707401      0.19422202959240
  C   2.41324433635810      0.00829590178433      0.10562308817081
  C   3.47254149519998      0.65444932563298      1.03270322753359
  C   4.50730333917953      1.34576739765987      0.10173170360942
  C   4.75919541234002      2.82594245536168      0.41774438929295
  C   3.72642803967635      3.48405523704109     -0.43952527153378
  N   3.38391370286038      4.82274345169868     -0.41468550577891
  C   2.49455705114137      5.09596836435227     -1.35415858200757
  Cl  1.96936320424719      6.81271412807583     -1.34798393687279
  N   1.93335935040152      4.37544430897717     -2.27457921072398
  C   2.34315448156457      3.03918954312220     -2.33732466872554
  C   3.26148879825521      2.60361278623592     -1.39071362852442
  N   3.89362785789344      1.33190450787152     -1.25143346353032
  C   3.06787751766291      0.15302668678284     -1.26581153937171
  C   2.45896676402075     -0.31074387285090     -2.53670137014128
  C   3.63527139269206     -1.05524947436026     -1.95465180953428
  H   0.63648016449127      0.59620470112948      1.19331420569754
  H   0.35598019622321      0.30937183311818     -0.53118404923166
  H   1.17559336221954      1.78201012622287     -0.00824523850834
  H   2.27630187989569     -1.05020679654200      0.34354016567186
  H   3.96131109796929     -0.08930026358504      1.66507866618272
  H   3.00178375953205      1.39115158583155      1.68667484500611
  H   5.42782874588514      0.75804696269346      0.07534196628587
  H   5.77972086109501      3.12426612928980      0.13514448263385
  H   4.64661539110273      3.03951610156478      1.48540983746824
  H   1.89486174483216      2.41958123585960     -3.09831908551168
  H   2.64098792407605      0.29185477949689     -3.41501410153381
  H   1.48273603726948     -0.77497449072345     -2.48538590930015
  H   4.59119147573254     -0.92760144675639     -2.44331980162628
  H   3.45469997375744     -2.02617119205899     -1.51149143468883
