20
Coordinates from ORCA-job 2616optt
  Br  1.39139555482711     -0.46553323853479     -0.01219664217903
  C   3.20902350300156     -0.04314661436192     -0.01227635606907
  C   3.75053440304081      1.20582960340399     -0.01202165226607
  C   3.10913248464871      2.47463090927453     -0.01159831853130
  C   1.80798044009775      2.96220636870516     -0.01128676253995
  C   1.90736764261411      4.40714521489462     -0.01056735488461
  N   0.96296170632568      5.30219368153387     -0.00992806734738
  N   3.26647668644740      4.79045266887829     -0.01087243335765
  C   3.91353749937392      3.67848532780373     -0.01141380665610
  O   5.27464266337902      3.66387939156780     -0.01168630655465
  C   5.87056484576696      2.43951195281024     -0.01206514444302
  C   7.29605884737478      2.50757467967888     -0.01229936578643
  N   8.44259943174966      2.58671435042943     -0.01317474792619
  C   5.20758615694827      1.25967997137420     -0.01221009098407
  N   5.95077479692844      0.07328533867498     -0.01258679373174
  C   5.31518778694839     -1.01821752825698     -0.01277185883190
  O   3.98391441871450     -1.19354866571725     -0.01264503257343
  H   0.88419752777074      2.40779801593232     -0.01136187158123
  H   0.06764846445648      4.81375433333995     -0.00995616397266
  H   5.83041513958565     -1.97169576143106     -0.01308122978352
