31
Coordinates from ORCA-job 26170optt
  C   3.02200137533907     -1.49726831437543     -0.08972319807003
  C   2.62078234604922     -0.02339896229770     -0.18609694043065
  C   1.10564211293140      0.11736237825722     -0.23412933557138
  N   3.11564601162251      0.80572685343987      0.90096312251507
  C   4.55411994891416      0.79644994034136      1.15945215145875
  C   5.34685461556521      1.20671999743589     -0.08638402250982
  O   4.95479597275269      2.45413916403944     -0.61895626746786
  C   4.85987129180648      1.70401865934799      2.30806677700900
  C   5.91443501103230      1.57089865802778      3.17995688772226
  N   6.82056353972481      0.54829731329302      3.16833833292805
  C   7.71758908368713      0.64997585388213      4.13225960900472
  Cl  8.92582842183471     -0.63745118440218      4.20670890201692
  C   7.80260967245152      1.65895012896806      5.08070361870545
  N   6.94288235181522      2.68956652691467      5.11680910125308
  C   5.98725182241392      2.65608381411854      4.14940013804886
  C   4.98819219594910      3.58041363051900      3.94484405785120
  S   3.96004749070147      3.15068797883967      2.63128869620143
  H   2.60902565140740     -2.06765642896141     -0.92479144839790
  H   2.64210744920620     -1.92729130443851      0.84148300976207
  H   4.10524681832780     -1.62187650412148     -0.09786678183352
  H   3.02838034383054      0.39236129346748     -1.11284500764724
  H   0.66127034530575     -0.27810554163243      0.68438167397307
  H   0.68466751707964     -0.43582364190026     -1.07526261664040
  H   0.82773117775743      1.16736235964800     -0.32192661627675
  H   2.62565833930744      0.59256472508428      1.76399578221529
  H   4.94154940128796     -0.19381630364289      1.44215129599062
  H   5.21825450972395      0.47319023703596     -0.88733914191124
  H   6.40323661573402      1.20851277882538      0.20137059141353
  H   4.78732048046963      3.04796952890063      0.12533320843866
  H   8.58859567908939      1.62627878656137      5.82530861613783
  H   4.79884240688184      4.46715757882450      4.52650580411090
