29
Coordinates from ORCA-job 26185optt
  C   3.44158822144992      1.19639681825932      0.44696348357448
  C   2.66170714404531     -0.06644934480971      0.08606048497904
  C   1.16939995903358      0.26098064047199      0.02261495635723
  C   3.19380272121315     -0.69220271864707     -1.23161171799167
  C   2.25916434965724     -1.75540539474178     -1.81779099270245
  C   2.25137903004058     -3.00850402860181     -0.94810698204655
  C   3.63603714965832     -3.65083123953199     -0.93931991456298
  C   4.74413751444566     -2.63770220209291     -0.81535916582839
  C   6.03228952136505     -3.03487606476360     -0.47830320793742
  Cl  6.56806062442125     -4.69527778810267     -0.73958673474374
  O   7.06459684824638     -2.16595703918551     -0.45865905024332
  C   6.85577224502981     -0.80097769664859     -0.85980123822903
  O   7.88120248953651     -0.15624420555411     -0.91118668511913
  N   5.61308884491020     -0.39514119815880     -1.10081460455541
  C   4.57709552114029     -1.27979488971045     -1.04701634256955
  H   3.10091675427751      1.59472650873099      1.40651041953128
  H   3.28068859357333      1.96523244548214     -0.31509798169729
  H   4.51136791577958      1.00417906725615      0.48968159262836
  H   2.81809172639149     -0.79833007607995      0.88557145727702
  H   0.94991378056086      0.87196280260974     -0.85860523043671
  H   0.87051559275217      0.83232825782389      0.90485724068735
  H   0.54522636322576     -0.63278343041053     -0.02255817215318
  H   3.29142061697581      0.12846729794512     -1.95162705174974
  H   2.62542355798647     -2.02296847622139     -2.81415932654537
  H   1.24966457416553     -1.36096845153604     -1.94829419286926
  H   1.51126750828417     -3.72742883003693     -1.30925968416518
  H   1.96120208044582     -2.74046794787448      0.07243982552488
  H   3.77573172975074     -4.21297356209091     -1.87097471783553
  H   3.71324702163742     -4.38598925378009     -0.13456646657774
