34
Coordinates from ORCA-job 26186opt
  C   1.72440497077493      1.25586391257666      1.10912868524478
  C   2.24482956766579      0.33029381871704      0.00758318854658
  N   2.93079935381643      0.99405570364840     -1.07781334166131
  C   2.10659019558097      1.65229611716013     -2.05535992329478
  C   4.27707382592252      1.39701271266453     -0.85810982403694
  C   4.64699816845802      2.74455176535089     -0.58659795135030
  C   3.62007896809814      3.83939122711179     -0.52580618058265
  C   5.99767291429651      2.96618285674725     -0.39363004523571
  Cl  6.56287131973762      4.63561625458101     -0.12635613227083
  N   6.97417203592417      2.07790044672982     -0.38932318872498
  C   6.63335080851842      0.77833045636475     -0.61319397592477
  C   5.27785823272488      0.38686532416301     -0.88248373210837
  C   5.02332823615846     -0.97112003975323     -1.15484588695193
  C   6.05074284856104     -1.91981459868463     -1.14244392103796
  C   7.35714531039554     -1.55087627670055     -0.86221845475029
  C   8.46896785967709     -2.56435433147055     -0.82584996674805
  C   7.63472338474575     -0.20345515780596     -0.60471365650490
  H   1.22171306877730      0.68241841491120      1.89208457478382
  H   1.01116447570426      1.98346420110389      0.71488147015612
  H   2.55636695655855      1.79834434838972      1.56149366370658
  H   1.40815967593483     -0.24081944887033     -0.41439084255165
  H   2.93697789415097     -0.39331335533710      0.44645743698220
  H   1.41418488849386      0.92882285153908     -2.50447671253359
  H   2.74416054221482      2.04832898754366     -2.84600873031715
  H   1.50100958483881      2.48747350467564     -1.67010347770236
  H   2.69146098520281      3.47067177631412     -0.09046455018038
  H   3.37638666599786      4.23287905436946     -1.51937098850683
  H   3.97471890929057      4.67275290754769      0.07622131101246
  H   4.01257639397785     -1.26970775786166     -1.40288556620483
  H   5.82381128613696     -2.95940245289363     -1.35763927882199
  H   8.11556246758555     -3.54720736750076     -1.14217774448280
  H   8.88611412936634     -2.66429042721518      0.18119263954268
  H   9.29313949071452     -2.27286215113098     -1.48350039454177
  H   8.64888458399738      0.12270672301472     -0.40127850294805
