28
Coordinates from ORCA-job 26190optt
  C   1.88669590573960     -0.34281260411393      1.60297460827220
  C   3.17151975441866      0.35148913973752      1.17849434135797
  N   4.21117112782013      0.09735637240124      2.15155362088064
  C   5.30114790376344      0.74195270675222      2.05655271878097
  O   5.42827190995223      1.62054747805890      0.91500336026353
  C   6.39466855087629      2.53253337719592      1.22333664742672
  C   7.64810853356488      2.38089954354624      0.43264120821690
  C   6.25376388375882      3.19933821330832      2.38318808513956
  C   7.29744644315136      2.78465057938069      3.33443093276846
  C   8.17296555980589      3.49841500272832      4.11068893968562
  Cl  8.15699644481096      5.24849793165699      4.00551514272175
  N   9.07171804586591      2.98312774781055      4.95062343447056
  C   9.12684677212632      1.66866962622892      5.00588527815244
  C   8.31712293405310      0.73891645219508      4.27267353917608
  N   8.50139554937834     -0.56079573471203      4.31775598815578
  C   7.25689711493647      1.33359516321334      3.43703565354744
  N   6.36266254178765      0.53865670442720      2.88419585663342
  H   1.09088853521379     -0.18118651460390      0.87182444641961
  H   1.55500083341339      0.03623666963672      2.57077309334140
  H   2.05581674485859     -1.41514833365593      1.70799418501949
  H   2.99119519418510      1.42647078221879      1.05597402342176
  H   3.47521636797653     -0.01441043214791      0.18929901336800
  H   7.42470154412675      2.52955606462879     -0.62721110256673
  H   8.04134890117606      1.36688380095289      0.54815546424481
  H   8.39301837253707      3.10830244484882      0.74803990359048
  H   5.24169068955482      3.21925901060095      2.78418312512548
  H   9.87380746293992      1.24690717549243      5.67619607704782
  H   9.27891637820779     -0.75090836778716      4.95422241533778
