21
Coordinates from ORCA-job 2619optt
  Br  1.01574350740253      0.18641526511600     -0.04708962558201
  C   2.89204070166717      0.02303277754396     -0.04788203427542
  C   3.59683185270167     -1.16595504322702     -0.04760146854290
  C   3.08871641350670     -2.48299162466425     -0.04730463578124
  C   3.88413965341213     -3.61735959861794     -0.04699516752177
  C   2.92284375283717     -4.66999858939619     -0.04690153952486
  N   1.70555081288435     -4.22502846715973     -0.04697510090438
  O   1.78288055155273     -2.84343908236610     -0.04735573917741
  C   5.27945196280233     -3.51559854978759     -0.04689107227303
  C   5.83732198115713     -2.23998739314035     -0.04721950494960
  C   7.26163826192404     -2.12421713643013     -0.04704719355120
  C   8.46283661514010     -2.08808056406042     -0.04686733236039
  C   5.04522200225550     -1.04618777311097     -0.04767335835045
  N   5.68081100293902      0.13973571579898     -0.04817296812782
  C   4.99135484021013      1.29249243392998     -0.04859318572333
  O   5.46674982281275      2.42062736875426     -0.04942760962493
  N   3.57452490645619      1.21098567919354     -0.04809136686528
  H   3.08523911249897     -5.73774782349269     -0.04666014599877
  H   5.91719805843155     -4.38812615242453     -0.04658730370593
  H   9.52266982239317     -2.02093024181606     -0.04669617180765
  H   3.08423436501464      2.08935879935727     -0.04896747535162
