27
Coordinates from ORCA-job 26193optt
  C   1.02630546786288     -0.12788420338203      0.19062405227236
  C   2.52257326957912     -0.01271759861504      0.15952982476682
  C   3.15365425117840      1.24432998589995      0.03096788898116
  N   2.33574630646293      2.38798249252990     -0.09900401940132
  C   4.56317273050068      1.32603865592180      0.05317296532814
  C   5.27451781077922      0.06497436708876      0.08484544667977
  C   6.68566989538934      0.05284188493637     -0.00819603027939
  C   7.38114643384991      1.25593880513845     -0.09296472593432
  Cl  9.13467287736078      1.21110372762814     -0.21360298918485
  C   6.74465159961885      2.47060176950833     -0.06327939014940
  C   5.33772388497245      2.54089801276665      0.03388364417247
  C   4.76404937456278      3.91789935394981      0.20132365152880
  N   4.23542122002969      4.47793394699708     -1.07154698035563
  N   4.65217533235035     -1.13072151637487      0.19372789174581
  C   3.32045467492965     -1.13345076238642      0.24764671521552
  H   0.58490827654999      0.49308041706769      0.97756323380965
  H   0.73482768925072     -1.16326151344554      0.37297331832411
  H   0.56128407667939      0.17838777860053     -0.75497884755006
  H   1.42510463517527      2.15348275144601     -0.46681487179451
  H   2.75584776007461      3.12313485001668     -0.66390279671140
  H   7.19328423734037     -0.90027000526601     -0.00777786866977
  H   7.32755859492002      3.38395905831656     -0.08597771969186
  H   5.55263982782149      4.56005494452040      0.60869686656283
  H   3.94132113805270      3.91954922670815      0.91838351871329
  H   4.90267053789880      4.27613101176306     -1.80873446704389
  H   4.13794156189711      5.48728044969752     -1.00962694402948
  H   2.84767653491242     -2.10829789103197      0.36206863269516
