26
Coordinates from ORCA-job 26195optt
  C   1.82133748046901     -0.17297017421654      2.10042993246573
  C   2.69382629435141     -0.12618246275330      0.87788781223516
  N   3.03487120865222      1.08184389902157      0.47700505978189
  C   3.81097386709861      1.22576070823936     -0.61445154711683
  O   4.04579548754295      2.52262023594280     -1.00710341764995
  C   4.36477396483582      0.17211133664394     -1.29300743974883
  C   4.01734601764083     -1.11108003649592     -0.87890354739200
  Cl  5.08400155475754     -2.40428785626933     -1.41633119756988
  C   3.06384040268181     -1.32462782617759      0.17841792100013
  C   2.47242910982613     -2.59327541982419      0.49837098724696
  O   1.98419012927439     -2.89535547144074      1.61219079504306
  C   2.36398257490843     -3.64254873849925     -0.60951319439043
  C   0.98597108228265     -4.25453909425933     -0.60697525815943
  C   -0.06474414057025     -3.65875981015299     -1.45162032942338
  N   0.51373915438280     -4.96406271958236     -1.79936780636642
  H   1.59392251075046      0.84876520908245      2.40058045844474
  H   2.31244662524840     -0.71135349256888      2.91014492412245
  H   0.90656634062873     -0.72965376459708      1.89578303994700
  H   3.57738905852437      3.05885029978885     -0.35636561165151
  H   5.07772085475720      0.33615778058662     -2.08967638552738
  H   3.11335336765919     -4.42847246766802     -0.46176867751621
  H   2.54931258824968     -3.19877297961431     -1.59077750228996
  H   0.68687536638116     -4.71040285931443      0.32707516797314
  H   0.21584307380837     -2.79698627052307     -2.04695479358474
  H   -1.10219170773835     -3.68878221615446     -1.14414681550129
  H   1.19242773359637     -4.84199580919377     -2.54492257437202
