21
Coordinates from ORCA-job 26206optt
  C   1.10564366051068     -0.56319563425070     -0.51530358738288
  C   2.50079614760576     -0.16773018431791     -0.21679356396344
  C   3.08760671322496      1.03076418944495     -0.12638654457737
  O   4.44315015359898      0.83929296860804      0.18371626548177
  C   4.69167868848517     -0.48951237132534      0.27202608744809
  N   5.80674065899666     -1.05035252482110      0.52622383382908
  N   3.50360810709997     -1.11433995072104      0.02767307266385
  C   2.56107864741823      2.38083591753212     -0.20519967554799
  C   3.15353835546145      3.36484238742282     -0.89794298200209
  Cl  4.57354609804958      3.11701371792829     -1.87071275131393
  O   2.76992931563846      4.62850460444981     -0.98778085320065
  N   1.61213286021239      5.09000587141056     -0.23243691185202
  C   0.97417539512857      4.10484944035359      0.41100817720066
  C   1.29359116630681      2.74417727798558      0.51271907006060
  O   0.62345356657218      1.87797173564977      1.13410640226263
  H   0.51442436015517      0.32624011496004     -0.71231388282787
  H   0.65526396864440     -1.06026511533477      0.34677539467152
  H   1.06995484807644     -1.24156589865558     -1.37290983283216
  H   6.51918825912526     -0.34213370691000      0.66599072779163
  H   3.39721189730568     -2.11035740084607      0.06976281827112
  H   0.09528713238317      4.46095456143693      0.93777873581944
