20
Coordinates from ORCA-job 2620optt
  Br  0.75382641697470     -0.14344188276707      0.13939697402298
  C   2.74503640593841      0.04053410994683     -0.09271291855887
  C   3.51063062365757     -1.15927307587838     -0.07141887358194
  C   3.02485317643518     -2.50415005785235     -0.07281357135116
  C   3.83481387950398     -3.62457560795162     -0.06518749565539
  C   2.91088001169364     -4.70233821473692     -0.09421522998594
  N   1.68383853452074     -4.27995064017139     -0.12123068167633
  O   1.74347610069451     -2.89511222105420     -0.11032915379729
  C   5.25223892779362     -3.52188766624645     -0.05409824781203
  C   6.11775521077292     -4.65801342020321     -0.04896322191120
  O   5.75530117276368     -5.83302326368739     -0.04918770734192
  C   5.75978420267749     -2.21366008510941     -0.05616603876417
  C   4.96093146216012     -1.09042987155674     -0.06830816111929
  N   5.64517563776365      0.11783095471637     -0.05125111474480
  C   5.62147097253660      1.30932904173509     -0.06420054100187
  O   5.77904724323519      2.46764255541931     -0.06827787751306
  O   3.11691469685675      1.17624582920075     -0.21134262079693
  H   3.12582004082979     -5.75851672420398     -0.09634738924097
  H   7.19820482051239     -4.41362213351732     -0.04477811920097
  H   6.83200046267900     -2.05958762608189     -0.04456800996886
