29
Coordinates from ORCA-job 26211optt
  C   2.48920905738182     -0.18319344604814      1.72669678962354
  C   2.63848542738912     -0.01382987249390      0.21806292357933
  N   3.56891268158038     -1.04787207180859     -0.26216638741933
  C   1.30849120908759     -0.30534934010827     -0.48383365562227
  O   0.88130674375729     -1.63362483011064     -0.27244853913281
  C   3.08332244267562      1.43038270638464     -0.13211555221092
  C   4.57240549013803      1.62653804327005     -0.16053393455330
  C   5.19865771409915      2.08426415673663     -1.28797889858182
  N   6.54681674189770      2.28725303328738     -1.38493801144393
  C   7.18915013175685      1.96373284777861     -0.25455964569272
  Cl  8.94073240465279      2.18485091411769     -0.28857234800442
  C   6.59662359544930      1.48746529855945      0.88760715027467
  N   7.35450096659355      1.16108658419757      2.02493113019773
  C   6.85742039720292      0.70355480026624      3.19602412270204
  O   7.55143689964713      0.42610902334361      4.16176349456082
  N   5.25323341886239      1.29972315338143      0.98497700310641
  H   2.19741372000174     -1.20508031980252      1.97028551499949
  H   1.72305438646716      0.49584909818634      2.10604482151776
  H   3.43442221579184      0.05939161770815      2.21218127575145
  H   4.41069116330973     -0.99418103696520      0.30654164234500
  H   3.87542475416625     -0.80363816533392     -1.20152345568136
  H   1.43340520386305     -0.11355886113149     -1.55917287782582
  H   0.53009943055203      0.36554198945235     -0.11119716799472
  H   1.70397672160328     -2.14761055836483     -0.27600983713300
  H   2.63474214470659      2.11194271024627      0.59973559779124
  H   2.68564728203656      1.70335412912438     -1.11505677434779
  H   4.61403473740397      2.32311577701039     -2.17082616695455
  H   8.35577799733067      1.27820944769629      1.97155732932063
  H   5.76660492059514      0.61057317141997      3.18552445682861
