32
Coordinates from ORCA-job 26213optt
  C   0.75131300109766     -0.14616735114236     -0.19793511747505
  C   2.20894172380603      0.29102377273087     -0.30303724152457
  C   2.30779841477204      1.77423780779940     -0.63763603333591
  C   2.94974869485255     -0.03437336987168      1.00030673298047
  N   4.37443886566967      0.17815123960899      0.90458719738878
  C   4.85874890365611      1.24362972120212      1.44545727954176
  N   4.13607087545957      2.20206952021210      2.10314637109426
  C   4.86202563533106      3.19760884777383      2.57903453762475
  Cl  3.93456144163070      4.45873454496049      3.40280872911789
  N   6.14592430464948      3.42075780884354      2.55766378257012
  N   6.91297449779177      2.51377246748393      1.94648557984549
  N   6.23590461173117      1.45661386522971      1.36161039646123
  C   7.12653935145893      0.49127543450146      0.77311067654339
  C   7.84912483336750     -0.35757083201010      1.81989876905365
  C   6.89419794341880     -1.13685840382444      2.70485248745840
  O   8.77030633739143     -1.23249946958589      1.16759543594523
  H   0.20347491826862      0.06419577422022     -1.11969001403844
  H   0.25352503246785      0.39003568494705      0.61497107268342
  H   0.67009169674030     -1.21616560851088      0.00847771407387
  H   2.69305839342200     -0.27973211852746     -1.10366267641870
  H   1.84848086091544      2.37121361635984      0.15391263334781
  H   1.80599913358845      1.99876174400452     -1.58307362438333
  H   3.35007408078415      2.08439578071987     -0.71323494137963
  H   2.78057994461549     -1.09598205235334      1.22006102807456
  H   2.49384381041697      0.55006959804116      1.80895575699063
  H   7.87805547012725      1.02723659411891      0.18959610347632
  H   6.53569629220496     -0.15139943243057      0.11951604504786
  H   8.46435048261779      0.30469401974879      2.43079380776602
  H   6.27097500629180     -1.79826334526925      2.09765379584476
  H   6.22437891565645     -0.46096929252859      3.23740769481894
  H   7.45719512026257     -1.72954586429681      3.42734126229684
  H   8.25560140553530     -1.82195070215542      0.60602475850914
