26
Coordinates from ORCA-job 2622optt
  Br  1.24020724859197     -0.49345903349560     -1.06200118703536
  C   3.05150624164882     -0.23269177500051     -0.49976915268420
  C   3.84338789760492     -1.34241119765281     -0.30272846052535
  C   3.61222626091987     -2.79875601648461     -0.55451751538154
  C   2.56113867070985     -3.47252714477195      0.32778046565114
  C   3.32329223531594     -3.82868480421036      1.58344921461076
  N   2.91287775879171     -4.16894749284065      2.72497323580267
  O   4.65319841975732     -3.77711796480405      1.34028162224830
  C   4.93123015646840     -3.43186097576371     -0.02438617878026
  C   5.97480084169028     -2.31632257339489     -0.05891792213998
  N   5.18109841541095     -1.12626121573780      0.09763767824864
  C   5.79656631125767      0.14607274779372      0.14663055026987
  O   7.02318102185807      0.17663497648242      0.33128132875710
  C   4.91375851345295      1.23663681672230     -0.02469863999179
  C   3.54201148236210      1.05191979251957     -0.33828413817834
  C   5.33528778342482     -4.64269015268821     -0.74569584481740
  C   5.65150907737389     -5.63151823317966     -1.34346162204563
  H   3.45732445178281     -3.04170340154740     -1.61075632992218
  H   2.19647670569804     -4.39896600147126     -0.12778946298038
  H   1.71194042188034     -2.83085994906992      0.54661375906554
  H   1.89769552214728     -4.13042246471991      2.73912425741968
  H   6.50350052020522     -2.33034970968832     -1.02048157176753
  H   6.70701596162356     -2.42787437976678      0.73848028603299
  H   5.33873596078453      2.22602457719836      0.05668028142821
  H   2.88385267528370      1.89878621701903     -0.47454990025596
  H   5.93817944395488     -6.50865064144691     -1.87089475302899
