24
Coordinates from ORCA-job 2630optt
  Br  1.29706250505360     -0.50647910137009      1.40889910185173
  C   3.03542155791138     -0.31831328677445      0.58931572666229
  C   3.74114188015638     -1.50393615707971      0.25742243339252
  C   3.04593484076305     -2.81211400507118     -0.19493353805776
  C   4.10557232436924     -3.46306848985608     -1.06099490763711
  C   5.23921868763414     -3.40022714806989     -0.02559137289156
  O   6.04694580202409     -2.29847267634484     -0.30543187195270
  C   5.12423070043321     -1.22411912378376     -0.12930359250934
  C   5.54166219371338      0.06434856804962     -0.26697685526677
  Br  7.38457746570429      0.38679342832508     -0.71103567276430
  N   4.79906907878911      1.16635134316512     -0.05785904697269
  C   3.56301746294970      0.93178337887602      0.45114697264737
  S   5.37650910061302     -5.05848146629511      0.63319892565898
  O   5.52163536160145     -6.12602531735567     -0.32176510548024
  O   6.17275623091389     -5.10790583769809      1.83089483017221
  C   3.62995140091657     -4.89590578908677      1.17771744527724
  C   2.79339915112139     -3.89118264663247      0.87771483669616
  H   2.10070967302072     -2.59791846541981     -0.70179803088203
  H   4.39994734683201     -2.85616277632245     -1.91548651354188
  H   3.84434179345349     -4.46622140393025     -1.38951004062326
  H   4.81821802627344     -3.09696649930956      0.93204237749156
  H   2.99200981695932      1.80190384677458      0.75562332848914
  H   3.39838569338938     -5.64994530308728      1.92136640568332
  H   1.84228190540371     -3.85773507170292      1.40034416455711
