21
Coordinates from ORCA-job 2634optt
  Br  1.31939821131829     -0.06350247145027     -1.56337348744130
  C   2.75809146575642     -0.04418619010420     -0.19045092536169
  C   3.51787497863599      1.13962149624151     -0.08597689060975
  C   2.91410934674110      2.45138929394111      0.03586800528272
  C   3.67381143992205      3.56103557064057     -0.21712088866020
  C   5.08564165700156      3.35546352393569     -0.64747762530281
  O   5.63697503353235      2.25261984866164      0.04940550007701
  C   4.93032880468986      1.07273502412338     -0.03834507745513
  N   5.71441671419007      0.02964907749874     -0.01320911127204
  C   5.24134238571931     -1.24451570724626      0.03261665539555
  N   5.95840670765219     -2.30174760965528      0.06584909165440
  S   3.47361998927849     -1.58784709411914      0.08159346769833
  S   2.83317117171344      5.02633310303929      0.03941236551697
  C   1.42062873022157      4.19422255748254      0.49177636400870
  C   1.59610267046783      2.83503179676781      0.46729536872312
  C   0.55385069469777      1.98279548723788      0.94765052304723
  N   -0.32681158363694      1.39560407335594      1.39411159675696
  H   5.72422792369905      4.20879458323540     -0.42349002670413
  H   5.13133458597994      3.15238352971900     -1.72649616609811
  H   6.93545917776438     -2.00852962553009      0.07502162882062
  H   0.52901989465521      4.72364973222474      0.78433963192354
