20
Coordinates from ORCA-job 2635optt
  Br  1.39190316906334     -0.25632497008305     -1.26422658470939
  C   2.83003567250224      0.00148455694453      0.07669424013960
  C   3.51214312358292      1.24034338671336      0.08285523887572
  C   2.94165076545028      2.53650624119456      0.10805112014795
  C   3.68984486903159      3.68674956901407      0.04538730171000
  C   5.15491729552256      3.53434900382698     -0.17539099358250
  O   5.63836745990845      2.32172638203521      0.40237503707747
  C   4.90995082972608      1.18334686924806      0.24063912919501
  N   5.61756034815195      0.08588518445690      0.32927861203625
  C   4.97372249115614     -1.10717768861416      0.30411824752767
  O   5.48964077505818     -2.18991656981329      0.36232098007318
  O   3.56528560932649     -1.11962890834785      0.22244086165340
  C   2.78615760325137      4.75636697116895      0.16428981909758
  C   1.54303165844230      4.19170337788185      0.28104614691142
  O   1.63663974393784      2.82401527650030      0.25301054349061
  C   0.27096305766762      4.78356470630186      0.40679425697009
  N   -0.74833916685350      5.31041343891360      0.51161364925175
  H   5.73349990544583      4.33155504985845      0.28879850849768
  H   5.39114106131015      3.51644771123621     -1.24769138438026
  H   2.98588372831811      5.81559041156341      0.15559527001676
