27
Coordinates from ORCA-job 2638optt
  Br  0.87102040451795     -0.51765642436009     -0.59882400987304
  C   2.77572688819907     -0.26243000726864     -0.31632993280609
  C   3.59591315268529     -1.35065965554004     -0.29326333840149
  C   3.28834470072379     -2.82068710512320     -0.40518333451998
  C   2.42046877797686     -3.38903022887382      0.72246488296543
  C   3.42571173000620     -3.47953178673306      1.85314054046037
  O   4.62601983177440     -3.93726552154645      1.23986360174505
  C   4.66968805991508     -3.50547853305183     -0.12353710110393
  C   4.88078392450258     -4.69871092746557     -0.95695740772720
  C   5.02887542834302     -5.66741871568082     -1.64756642014920
  C   5.75710904242863     -2.40185239947744     -0.28926097273976
  C   6.60535425905683     -2.57567811765336     -1.54616733483609
  O   6.70681239210218     -1.78257223194738     -2.44158136573457
  C   4.99197769738840     -1.14044540084522     -0.15582313060773
  C   5.43865416100490      0.21182685194362     -0.08863971354202
  C   4.50002835924526      1.20693993541548     -0.10825483415107
  N   3.14578063238020      1.03038238537268     -0.20937009831344
  H   2.90314184158188     -3.08481258739960     -1.39061944099153
  H   2.06333125443230     -4.38680670859874      0.45520097485681
  H   1.57141880608537     -2.74955599179304      0.95017116141561
  H   3.15944040023212     -4.19672978307506      2.62994187151716
  H   3.58913094462328     -2.49525715233030      2.30393344650334
  H   5.16278817707398     -6.52541795451592     -2.26012331248941
  H   6.49556954771504     -2.58186900436971      0.51247575197126
  H   7.22345083632776     -3.50074870902788     -1.54747841727793
  H   6.49093598995065      0.46475622786165     -0.03770235379255
  H   4.81852275972689      2.24370954608380     -0.05050971237804
