22
Coordinates from ORCA-job 2640optt
  Br  1.04458104950189      0.23707298645006      0.15894534723901
  C   2.96715230276910      0.18730963438172      0.00400204075902
  C   3.60072683169849     -0.99163576109324     -0.26135937387677
  C   3.10423378188685     -2.39456631058667     -0.31343048229795
  C   1.81530418367043     -3.02087066996294      0.26781090397287
  C   2.70914026315075     -4.19352400882119      0.69344165955982
  O   2.52607174999637     -5.35841408605354      0.85632807691192
  C   3.93236303145830     -3.27410602559505      0.65683225059761
  C   5.38675994196601     -3.50259221691579      0.34476091055619
  O   6.14343652122485     -4.22729448573246      0.92767349681691
  S   5.95102914316161     -2.26450552657368     -0.90127133828502
  O   7.35881107244903     -2.03157060395009     -0.74877957437876
  O   5.44643500269131     -2.77296277774598     -2.16450239990733
  C   5.02907688331063     -0.87130945345092     -0.40704105609585
  N   5.67232756982357      0.29737871605379     -0.16305149282863
  C   4.90995030407874      1.32326167122387      0.11023130804790
  N   3.56145687613791      1.36685406072490      0.17033397532219
  H   3.24646038547362     -2.79192818545805     -1.32115388626067
  H   0.99214913727740     -3.23533719749457     -0.40872489977062
  H   1.45310137960197     -2.48795919301598      1.14669141211439
  H   3.91097808481793     -2.76128457803963      1.63104485376613
  H   5.41245450385315      2.26598401165548      0.30421826803763
