22
Coordinates from ORCA-job 2642optt
  Br  1.18440273232313      0.09520369956963     -0.00915936709451
  C   3.07708519465869     -0.01731364453370      0.09041720899636
  C   3.72983342846529     -1.16306972800555     -0.11850296950561
  C   3.26195594188987     -2.55547062616990     -0.44012692525345
  C   4.14400136167918     -3.12757060912560     -1.56796231341144
  C   5.44044995502110     -3.33977063908908     -0.76333664890710
  O   4.92772916214526     -3.95404325816614      0.45432132461982
  C   3.66781475744861     -3.49512146926941      0.68966495367542
  N   2.95798067974554     -3.81893550758205      1.67530541932508
  C   6.01070830377555     -2.00197497353757     -0.47515143347013
  N   7.17419828466902     -1.46295913883517     -0.69162443620573
  N   7.09560846540409     -0.11993534574806     -0.46695109832916
  C   5.80787438193083      0.15473147461526     -0.12414477656322
  N   5.11321567232536     -1.05025642327190     -0.06122576313223
  C   5.12210246181907      1.35997628599087      0.06135398403650
  O   5.45754090997366      2.52457972040304      0.04278127388233
  O   3.66489937558631      1.13854120495975      0.40320058788661
  H   2.19061300044533     -2.58744655426899     -0.60751679842695
  H   4.27782516111007     -2.44051230342224     -2.40060242529587
  H   3.74983628411395     -4.08072099875346     -1.92167343401163
  H   6.16989933046653     -4.01534451785996     -1.19861540112058
  H   3.47642515500347     -4.44858664789975      2.28754903830550
