24
Coordinates from ORCA-job 2649optt
  Br  0.57092695062156      1.07389643080331     -0.09034960293793
  C   3.00123756756123      0.22328165648582     -0.29772892900936
  C   3.79239882000101      1.17741708000584     -0.85553445515862
  C   3.49399284759709      2.41111166162762     -1.67194224571466
  C   4.88942389524867      2.66605754647887     -2.29201516753814
  C   5.78530801048772      2.47305536239344     -1.05598002854226
  O   5.71256584143399      3.63024968408895     -0.20571200286746
  C   4.42209580579507      4.02893504281510     -0.00607266761658
  C   3.34667998363834      3.52133121693954     -0.67794129784728
  N   2.25817583224205      4.08395635779326     -0.06597535504332
  C   2.73534660770034      4.90332107746587      0.90305685005670
  N   4.05169061148870      4.90701339780833      0.95687399830523
  C   5.12663918553839      1.24843169157267     -0.40432202178567
  N   5.71015357778619      0.46052597430728      0.45473081953837
  C   4.94638446088843     -0.54956804678817      0.99324807406272
  O   5.34827573851909     -1.38721873262580      1.77919421815901
  N   3.58807068686612     -0.60048578441506      0.58131481493311
  H   2.67151316151326      2.31538543124785     -2.37576122188370
  H   4.99960556483252      3.66000374957493     -2.72471519841078
  H   5.11982067078740      1.90344797922057     -3.03620059454829
  H   6.84231435236715      2.32433339798892     -1.25851349243716
  H   1.32007795964363      3.71072767149714     -0.14736164577633
  H   2.08587690410708      5.48018833555572      1.54023431336499
  H   3.05142496333479     -1.33339818184210      1.02447283869740
