23
Coordinates from ORCA-job 2651optt
  Br  1.32489743441417     -0.48315307243267      1.61836426427114
  C   2.97610703819911      0.30099660913887      0.12816672786685
  C   3.74741408039634      1.34148675058669      0.59658811181084
  C   3.40952879418618      2.60502551008191      1.35426634811519
  C   4.76731861124794      2.86673833405747      2.06077125661073
  C   5.74917007260729      2.54351023462053      0.92679220477907
  O   5.75562695991708      3.61479291198719     -0.06181096024960
  C   4.54559888610197      4.12896188587790     -0.29615520881276
  N   4.29242528908678      5.09061119832173     -1.11609775287563
  O   2.94420592410528      5.30243683484312     -0.99795782113138
  N   2.37895342379215      4.45947696930424     -0.08177654630794
  C   3.33482393173360      3.72124212206268      0.36030061245893
  C   5.12310227662344      1.28745041526723      0.34156563277818
  N   5.79151302751591      0.34784521255262     -0.26821526382493
  C   5.04480315004451     -0.72445831038083     -0.72007581321385
  N   5.50237414595198     -1.75770509313093     -1.32486457708086
  N   3.65122361911540     -0.67324785400041     -0.50313074297000
  H   2.53905649437297      2.52676989379096      2.00069010602034
  H   4.90691251085703      2.14918051736714      2.86829087679734
  H   4.88243411878878      3.88274900241872      2.44161523514364
  H   6.78952887237593      2.42560383779364      1.21290150356097
  H   6.50749434621466     -1.64552931649063     -1.41764233941809
  H   3.15048699235137     -1.48278459363727     -0.84258585432818
