25
Coordinates from ORCA-job 2652optt
  Br  1.07954220021485      0.04937944334925      0.72528707190782
  C   2.93390481320948      0.15055194920729      0.17322466174601
  C   3.75053352441765      1.13411510916267      0.66147920753961
  C   3.35911300348641      2.46948107489577      1.26177619120704
  C   4.67741200702031      2.88553129333504      1.93614227850068
  C   5.65900383333283      2.48488323240356      0.82895038536179
  O   5.52728212021049      3.37608474222210     -0.30100556237214
  C   4.36428995936229      4.18223455779684     -0.31502494770729
  C   3.06993070735275      3.47700873619446      0.12461844116670
  C   5.14607697061438      1.10951792902339      0.48270199660670
  C   5.84401434152615      0.00492276517966     -0.00674935647006
  Br  7.73554197554627     -0.12899971342424      0.11180930239518
  S   4.98933842376484     -1.49541099476584      0.08913329151164
  O   5.46245354262500     -2.43633481305019     -0.89357816032226
  O   4.84439140949332     -1.94728070469429      1.44711510684852
  N   3.47145444076389     -1.00745113615284     -0.41516245548082
  H   2.51219950510798      2.38648571509146      1.94195209268616
  H   4.87077771673418      2.28631196128790      2.82453513276851
  H   4.72552086534603      3.94324749790240      2.20206493971878
  H   6.71048193270316      2.50380012366789      1.11157997455459
  H   4.26926822178278      4.55374952066093     -1.33647503024875
  H   4.52531393988286      5.05670523253555      0.32847233089187
  H   2.60486158639847      2.94654533645897     -0.70729254659933
  H   2.36894826349863      4.24895097583376      0.45586251032574
  H   3.41934469560489     -1.05402983412154     -1.42841685653670
