23
Coordinates from ORCA-job 2670optt
  Br  1.76106835116987     -0.09273092985837     -1.58510032213417
  C   3.30527518790281     -0.11030466848700     -0.46915729998102
  C   3.87942378930879     -1.34694046106799     -0.12801706508012
  C   2.95135405302253     -2.57726495775685      0.23662047055592
  C   3.09949915772328     -3.82849268003118     -0.71833117124225
  C   4.60712181573560     -4.23697196537365     -0.88538935106276
  O   5.05413296510998     -4.80683268901558     -1.84404773942211
  C   5.28761787884725     -3.41925730906715      0.16846239471024
  C   6.21095344969271     -2.24068769459356      0.35326372622744
  N   5.15539570423018     -1.17229016313933      0.55941265651898
  N   5.64231281399787      0.00142391740337      0.95371108594970
  N   5.03269064191976      1.07316811201071      0.76108128001674
  C   3.83949820440988      1.13329955094548     -0.08026217841509
  O   3.43267782632323      2.24900386821863     -0.37562516088793
  O   4.64176535929776     -3.63740468418343      1.41763921217184
  C   3.40927703939932     -3.08340385911692      1.56804011900380
  O   2.85637056812165     -3.08761456168324      2.62623171685297
  H   1.91834665778757     -2.24799512894369      0.28741043712554
  H   2.75767699109468     -3.56604262231900     -1.72050083225911
  H   2.49198770588767     -4.65720808756575     -0.35183430207638
  H   4.71058907344928     -2.65903119269964     -0.50692830388688
  H   6.78781903046118     -2.02685558292804     -0.54948628686040
  H   6.84814573510703     -2.26856621074778      1.23280691417505
