24
Coordinates from ORCA-job 2675optt
  Br  1.21231174263586     -0.15127201068225      0.19655835514260
  C   2.95329724221296      0.56285674262959     -0.30744443040591
  C   3.63751295733618      1.41733137174783      0.54581398261202
  C   3.18145547862908      2.58682381731815      1.38393657122731
  C   4.45450131777491      2.87263271795061      2.21043721066806
  C   5.52968612586243      2.65657992134248      1.14545801453300
  O   5.54346252574129      3.79866944544737      0.26930236179669
  C   4.30944159920730      4.14171849824313     -0.33439923399268
  C   4.21716146647002      3.54406992284081     -1.73890362451111
  O   3.63199856338260      4.08442443735209     -2.63453760569781
  C   3.02781125400045      3.76737411091023      0.45133649617754
  O   2.01479583460475      4.38508607181608      0.26546776406114
  C   5.02083354731058      1.42690896077734      0.43318623457483
  N   5.76701992183259      0.59154550818681     -0.27836904295642
  C   5.08334454719431     -0.39399327811068     -0.93346035779935
  N   5.57972533365603     -1.40403458529353     -1.52782270299050
  O   3.68198657348162     -0.31919945987133     -1.03986576241394
  H   2.26499644710139      2.43508859039431      1.95194145556875
  H   4.54873102923360      2.13982924408167      3.01176329593553
  H   4.48853434014291      3.88169812177940      2.62631613160611
  H   6.54933726342368      2.57053001635764      1.51368902270795
  H   4.28641507937763      5.22618309138989     -0.44878246691824
  H   4.75421940089808      2.58731484559585     -1.86699599796271
  H   6.58742040848959     -1.34316610220359     -1.41062567096285
