26
Coordinates from ORCA-job 2679optt
  Br  0.97969911184377      0.00286336624256     -0.26917499635800
  C   2.89727254572715      0.03746627533330     -0.06438233962566
  C   3.62095258004463     -1.14569009093251     -0.37430379082001
  C   2.78958521105016     -2.37002117277942     -0.77155843725523
  C   1.97625128436968     -3.10063858130778      0.36557949048778
  C   2.92577876580970     -4.22728058328992      0.87148464140841
  O   2.65384276294275     -5.11688224993824      1.62485987439719
  C   4.21652551168359     -3.77159953830617      0.21856066944480
  N   3.75539754110801     -3.39777972558896     -1.12800532439500
  C   5.71894649156044     -3.76631853598855      0.09472427973358
  O   6.54993182845708     -4.56949323149599      0.41074017479105
  C   6.02568760656445     -2.38310733193910     -0.53981616698100
  C   5.06469156547695     -1.18561767736165     -0.26506773127951
  C   5.76770856374838     -0.07889738612520      0.14160757002704
  S   5.13440176883419      1.50275004232388      0.47768388330447
  C   3.35868644607847      1.31081646492246      0.32934454251653
  N   2.62782706807531      2.35016642310937      0.57716428448999
  H   2.13858096675958     -2.13278838999831     -1.61140770969789
  H   1.06213183048630     -3.53865280993353     -0.03865661484652
  H   1.69561654331922     -2.46947568909407      1.20983694490568
  H   4.20424035082002     -2.81996723186943      0.78479960135555
  H   3.29698766981466     -4.20391272592534     -1.54222699407662
  H   6.09530023337056     -2.56375803967356     -1.61398811922066
  H   7.02029271792607     -2.10742122288637     -0.19155141068166
  H   6.84144021412675     -0.11847119136074      0.25892950917190
  H   3.20922282000205      3.14271083386331      0.83682416920377
