22
Coordinates from ORCA-job 2681optt
  Br  3.01104440478549      3.21361931426899      3.27740525969404
  C   2.96353165653431      3.83678038920125      1.48060637772908
  C   2.72288845708328      3.01631790179837      0.40461485933485
  C   2.68122726771052      1.53224809786895      0.55904015776484
  C   1.85074400615218      0.54884235477717      0.09814081454970
  C   0.56889265745555      0.44201038113762     -0.68525090124329
  O   0.61209604744115      1.12001649406379     -1.94161479273648
  C   1.10148162285759      2.36612358692899     -1.61946321697719
  N   2.27825977450549      2.72619684496273     -1.91358067691824
  C   2.78608521328407      3.57870449361733     -0.92513845138388
  N   3.32718569277493      4.73531726321966     -1.28471735898225
  C   3.74745962159377      5.65320046975447     -0.40200726841573
  N   4.42320962746284      6.71791063008974     -0.63920660497565
  S   3.23131427107590      5.54755932450820      1.34110302643342
  O   2.38232926652530     -0.66162508665849      0.46149639584286
  C   3.50335726139116     -0.35205531930726      1.12968935860469
  N   3.74237590561695      0.90003779790733      1.22046127850639
  H   0.37443264500655     -0.60827221972810     -0.89531669187075
  H   -0.26219672073959      0.84158274983844     -0.09221571576300
  H   0.45946928473324      2.90595665044169     -0.91605283853511
  H   4.60411191273575      6.74188291776527     -1.64344021902211
  H   4.08670012401352     -1.17335503645619      1.51344720836380
