24
Coordinates from ORCA-job 2687optt
  Br  1.44221907280355     -0.31678745019033     -0.94489805755512
  C   3.31226387555251     -0.16347637461352     -0.50737075001465
  C   3.95647165500812     -1.27874791810275     -0.02621908084670
  C   3.23422394319801     -2.54288958543769      0.49884523816455
  C   2.98915693194569     -3.81323549804285     -0.39059479041649
  C   4.37977693816768     -4.56409828084520     -0.33912886667234
  O   4.64670445944835     -5.59467819156416     -0.88338128858960
  C   5.17896977446662     -3.45931281950998      0.33724259460848
  O   4.21823999468364     -3.09028757020395      1.34195560045170
  C   6.24967139477609     -2.31359865488848      0.52163249967685
  O   7.44303567718220     -2.36142019317196      0.76978890511321
  C   5.40592694143376     -1.14011766010772      0.26046866715788
  C   5.97385739755598      0.13835342354636      0.17939537144101
  C   5.25461476430460      1.22980448072114     -0.27509945450366
  C   3.89669219222258      1.08221851457034     -0.67355977780004
  C   5.87594573078900      2.51185162266051     -0.37255384877760
  C   6.38327331611715      3.59998795986335     -0.46287239347112
  H   2.34334874606955     -2.27297023955101      1.06875782973736
  H   2.73410607644346     -3.62262701191202     -1.43414688057664
  H   2.21068930308398     -4.42924199631255      0.06081034390174
  H   4.92369746269995     -2.92817504720945     -0.61512202288590
  H   7.01960978211945      0.24850887581342      0.43901012294997
  H   3.34205270669300      1.91699694071927     -1.07252784418474
  H   6.83745186323498      4.55694267376925     -0.54043211690815
