24
Coordinates from ORCA-job 2690optt
  Br  1.23219889978000     -0.11403664466368      0.10415695079409
  C   3.10943424108223      0.06085080204093      0.13059188654622
  C   3.77070879139754      1.16949261960488      0.52294849086991
  C   3.29526799134148      2.53245024130380      0.95303582205107
  C   4.50598122057880      3.01709312127901      1.77095953601814
  C   5.63356464845572      2.54263333239306      0.85391763223431
  O   5.68900813330129      3.46852703702432     -0.29416871548212
  C   4.55011744973004      3.88663149554137     -0.85473918223264
  O   4.58923013696946      4.64040548259131     -1.79110087492935
  C   3.20407943763301      3.45347199662284     -0.26948543880769
  C   5.17349667535993      1.18362897230869      0.45826067824980
  C   5.87220167168898      0.05429109102409     -0.02213195153234
  C   7.27394440360347      0.00093643682844     -0.08767805675671
  N   8.43009700889103     -0.05554855341623     -0.13521651111381
  C   5.13022441831413     -1.13205076316980     -0.40120382692813
  N   5.55049128124382     -2.25573105791963     -0.82117395004957
  O   3.73797854720829     -1.06847907150867     -0.29644327900221
  H   2.35370054347547      2.51708427441867      1.50136796075147
  H   4.56589617850458      2.51180218581790      2.73402992002265
  H   4.51979132637862      4.09921206325364      1.92033833159540
  H   6.63868706002022      2.59906909320191      1.26453330437776
  H   2.64508823870483      2.98465606291284     -1.08058028245236
  H   2.69008189552130      4.38653497084864     -0.02595256084783
  H   6.56572980081564     -2.23492518833837     -0.87126588337603
