24
Coordinates from ORCA-job 2692optt
  Br  2.00991256195742     -0.47790679944697     -2.07030830705060
  C   3.57717346918617     -0.23417082039241     -0.97059614761365
  C   3.70666288323258      0.95294881352280     -0.33177459409293
  C   2.80743919725685      2.15643591613086     -0.26466527686611
  C   1.58001167062132      1.91710093137132      0.62970425169100
  C   1.96911325814224      2.14273059925802      2.07650718594457
  O   2.27833029573357      3.52739506638143      2.28036612366665
  C   3.09382405358929      4.12390644344478      1.38918499795623
  O   3.27710673184168      5.30540993631181      1.44935055692838
  C   3.73175815930021      3.22168504983873      0.36063715723457
  C   4.90455949898651      2.42552067347800      0.99622318221507
  O   5.68551278297939      2.89189117678814      1.78877100799018
  N   4.85181233942415      1.16335073146379      0.46253585279522
  C   5.84400283139783      0.10201601628371      0.60208323492022
  O   6.83931917080964      0.28250797869956      1.28994461005164
  C   5.51050872061534     -1.06251759342466     -0.13612885832805
  N   4.42416749834248     -1.25033932693670     -0.91436536300080
  H   2.47999384239557      2.44733248080564     -1.26186195562468
  H   0.78085159588730      2.62044698498424      0.37878330670991
  H   1.20299624609118      0.90567293243176      0.47993082940761
  H   2.82760387604178      1.52583094045259      2.35942857290672
  H   1.15204000873850      1.93199053266909      2.76348039497883
  H   4.17942878500674      3.87282154725258     -0.38950254725097
  H   6.22187052242222     -1.87506021136813     -0.06572821556902
