24
Coordinates from ORCA-job 2695optt
  Br  1.15056252320188      0.00236964128528      0.18961806854338
  C   3.05152627372059      0.11901937147597      0.01860650952387
  C   3.71769672096479      1.28299827578989      0.44526722421008
  C   3.01572029395290      2.52529140236477      0.90866970480227
  C   3.55393653937725      3.01686990280290      2.25132427191789
  C   5.06186349380698      2.91939317690974      2.29829904011031
  O   5.71194699923133      2.99365586426025      3.30996774851249
  C   5.66981621577948      2.69192580502345      0.92753089073505
  O   5.38295405768838      3.86320802553389      0.12332997447323
  C   4.23437150225704      4.03916247597795     -0.58224018503052
  N   4.21757406463307      4.73136120538364     -1.63775515583164
  O   3.08092005035320      3.58790482876993     -0.08391681266783
  C   5.12319366640812      1.40807649495403      0.38596995271162
  C   5.98063716270448      0.45601955974559     -0.09211918469186
  S   5.44087621400864     -1.08217777695418     -0.69628295615719
  C   3.64587704906687     -1.05882687970866     -0.50103059497940
  N   3.01199328735444     -2.12436222328260     -0.85391078537869
  H   1.94805940403073      2.35921763662554      0.98908364072922
  H   3.14777792555153      2.40493928699862      3.05771016259681
  H   3.25850992344020      4.05404806189106      2.43575683849223
  H   6.75400157741616      2.67188410205498      1.00416628888272
  H   5.16717750017454      5.02255946311085     -1.84834976370190
  H   7.05133686339282      0.60292451980841     -0.11043431785432
  H   3.65367069148450     -2.83346222082133     -1.19926055994783
