29
Coordinates from ORCA-job 2698optt
  Br  1.31819164433696      0.05587882658253      0.84867367314916
  C   3.13894794367358     -0.03601554939974      0.28694487286131
  C   3.83055655760001     -1.28908498292689      0.27836702208370
  C   3.04050054644927     -2.55602878929252      0.44617304094171
  C   2.78723126613290     -3.10276127678219      1.86571958998169
  C   2.31025065093338     -4.52536267062928      1.62126000617594
  O   1.81204582774073     -5.29623909407849      2.41553016899964
  N   2.55682266239556     -4.80746739551329      0.30430231159908
  C   3.44523569486398     -3.83146677434623     -0.32612248455550
  C   4.87298652533883     -4.35540126129288     -0.16597860721096
  O   5.87667132199887     -3.51884647906212     -0.65372895274919
  C   6.14063807478654     -2.41614826780303      0.20834840667320
  C   5.22885403483079     -1.23632365024516      0.05449574244154
  C   5.83006003993053     -0.04585865905979     -0.24655398190012
  N   5.08303200266760      1.12104950026930     -0.41297207558004
  C   3.73539454514507      1.21765611413454      0.01198555074005
  N   3.14406845499337      2.37521577145754      0.09386872995719
  H   2.04383164158365     -2.34310822825523      0.05357233276923
  H   2.04717070605416     -2.52592081062933      2.41711771462932
  H   3.70212931205900     -3.13994647432224      2.46338932743502
  H   2.49977556953627     -5.76770407054616      0.00054937634150
  H   3.22044119239385     -3.71187324152513     -1.38732445052600
  H   4.95011913299024     -5.29922571051806     -0.71530226333471
  H   5.04786575541451     -4.58138901122437      0.89698959497177
  H   7.16188418526690     -2.10567851568836     -0.01569431588339
  H   6.12056076390407     -2.78891524704273      1.24316096381754
  H   6.89211647586364      0.04035848351672     -0.42770308951918
  H   5.58340205286874      1.99285136048667     -0.35772540716790
  H   3.78521541824689      3.10975610373597     -0.19834279714162
