20
Coordinates from ORCA-job 2701optt
  Br  0.90986242667330      0.03361884682432     -0.01318781848655
  C   2.79659270098764      0.09396971530669     -0.04032870796388
  C   3.54314311786470      1.25526541292002     -0.05111323677036
  C   3.03519639417918      2.59079178566876     -0.05373819279517
  C   1.80573585777826      3.21742033590665     -0.05802478297862
  C   2.05853631903141      4.65846296093463     -0.05797139416124
  O   1.22394694782860      5.55232282041343     -0.06249933468524
  N   3.46365999976161      4.88928604177206     -0.05287570757058
  C   3.97348406982094      3.70958786241853     -0.05182533145830
  O   5.30266328558491      3.52862817023445     -0.04946120102586
  C   5.80067531908255      2.25679511872046     -0.05753607159596
  C   7.25992424101981      2.34831355110550     -0.06126936605774
  O   8.08065826227457      1.45490754106305     -0.07164297611973
  C   4.99558474040261      1.14532469051565     -0.05953243799383
  C   5.63911568735892     -0.16821851965164     -0.07032442942848
  N   5.07395692406165     -1.31614076351268     -0.06541801207431
  S   3.43708482685430     -1.51902307704596     -0.04380363713684
  H   0.81642396345951      2.79992945326201     -0.06250644871217
  H   7.58410060018354      3.40457949515776     -0.05292367245378
  H   6.72165431579194     -0.17882144201371     -0.08401724053135
