20
Coordinates from ORCA-job 2705optt
  Br  1.17540666578046      0.14398878618197      1.11109222840222
  C   2.96832804154465      0.05529887890488      0.52350016075668
  C   3.65047366096392     -1.09399197023250      0.23344057742144
  C   5.02888082949430     -0.94456137932508     -0.17107659765899
  C   5.89082182535174     -1.95014034389366     -0.47135177072452
  C   7.17107281162779     -1.34252040441039     -0.83809139492447
  O   8.22884565466025     -1.76269998479496     -1.18201942530567
  O   6.99125879098786      0.06562422161362     -0.72404278930991
  C   5.71956139256584      0.29736303134318     -0.32117878310812
  C   5.19703915952384      1.50956366488906     -0.09158823879244
  S   3.56858226781903      1.67756470824459      0.43658870344528
  C   5.49141416631699     -3.34566311536579     -0.39964137485991
  N   6.29291881620246     -4.31120341365978     -0.64795060568329
  C   4.06219800456521     -3.57907745230077     -0.00938494685236
  O   3.65797311779223     -4.75238588535988      0.05564044081790
  C   3.14114977916819     -2.47361507681928      0.28686589732062
  N   1.89400794960229     -2.72032257274667      0.59326935022706
  H   5.75075903032782      2.42938828567871     -0.21153006118413
  H   5.75067483418205     -5.17120434588750     -0.52101905767933
  H   1.79563320152303     -3.73740563205974      0.56447768769195
