24
Coordinates from ORCA-job 2727optt
  Br  1.89929209846790     -1.86745175748348      0.67935357121966
  C   3.48459882768990     -1.23513152472966     -0.17674517262620
  C   4.27718856117915     -1.99857938335190     -0.94012639079323
  C   4.54890266301819     -3.50755091301267     -1.09324295368320
  C   4.52070353396646     -4.35098444800603      0.20689159333591
  N   5.86437606024650     -4.21421193269788      0.79621282624806
  C   6.61380613831061     -3.77418197201746     -0.12514899581219
  C   7.95519378419420     -3.04917889448766     -0.07485416809281
  C   7.65246939140171     -1.85043071443868     -1.00750336943800
  C   6.46371308442002     -2.22217258957157     -1.65572031166992
  N   6.01136912798937     -3.56960517245994     -1.40721900739644
  C   5.47279960447627     -1.31606854539941     -1.36999467314402
  C   6.03711147554660     -0.26816485954630     -0.63974826528912
  O   7.39682458743391     -0.55624713659879     -0.43934061000991
  C   5.20864603241232      0.47395561607424      0.23989134466209
  N   5.45647244765774      1.38650315802038      1.12066893981584
  N   3.83268487120676      0.08036695230098      0.10011337378291
  H   3.96006232472315     -3.95812515124217     -1.89162391486455
  H   4.31497231004980     -5.40067359251762     -0.02470647427370
  H   3.77219960694730     -4.00652273056581      0.91763950813127
  H   8.76840921213892     -3.67611050145457     -0.44361716774058
  H   8.17932414517773     -2.73709839672842      0.94354767792547
  H   6.43878931404810      1.64067302499577      1.05556299954638
  H   3.21609079729731      0.61699146491868      0.69070964016629
