25
Coordinates from ORCA-job 2731optt
  Br  1.27265422109404     -0.26197287827705     -0.67375819990875
  C   3.14497615920428     -0.15230546531223     -0.26625629155656
  C   3.80070626821317     -1.28659555479575      0.10414911032930
  C   3.28287585311208     -2.69607849292236      0.30283435351778
  C   2.82430554699513     -3.63058781726428     -0.88053672126764
  N   3.91812053286325     -4.60647931150748     -1.10638923195971
  C   4.77520238066679     -4.34583721630048     -0.20538743793906
  N   6.15086749985364     -4.59833246613854     -0.08494233867054
  C   6.79294378561929     -5.65024942110961     -0.63575490037334
  O   8.00454402142169     -5.78307077228654     -0.66070266369724
  C   6.73401803036292     -3.38709204804118      0.46553368475890
  C   5.66271645537138     -2.53234608621879      0.71755501368039
  N   4.49067190356556     -3.38387456433745      0.73839098139811
  C   5.20912121040093     -1.23301899417570      0.41308139095330
  C   5.88503434421194      0.00237177723126      0.24118136720313
  C   5.17075967751666      1.11866507995865     -0.14298908704658
  C   3.79083062981572      1.08898173720721     -0.38879172094717
  H   2.51919377591198     -2.70235568243310      1.08419915389453
  H   2.64376341078680     -3.08214615493583     -1.80687630855764
  H   1.89755994677630     -4.13932256625627     -0.60906879719791
  H   6.09180401142563     -6.38271666761751     -1.06138975579833
  H   7.75567688776981     -3.16627585003209      0.21666967541809
  H   6.95181587576629      0.06712384494195      0.41347199812053
  H   5.69361690912089      2.06156541528270     -0.26133314151199
  H   3.24022066215374      1.97595015534051     -0.66289013284159
