22
Coordinates from ORCA-job 2732optt
  Br  0.72689918579485     -0.12295774466696      0.54463941624554
  C   3.01839224265183      0.08949867616357     -0.34256782157682
  C   3.65319229871507      1.27839716524468     -0.16959964006337
  C   3.02965430611244      2.58028955410621     -0.13201923983295
  C   3.71815297316920      3.68701531700365      0.13611717875296
  N   5.06808493962852      3.75756226615588      0.45172105029765
  C   5.81178525947386      2.62541434681762     -0.11852227022389
  C   5.08457267359272      1.29614594321458     -0.01598148590232
  C   5.73493295661722      0.11241347015304      0.07529951687764
  Br  7.62831952100271      0.00985344554202      0.22481946027700
  C   5.03497766607374     -1.16594800651821      0.01021875504701
  N   5.48025896236942     -2.34451169092519      0.14059719882360
  O   3.69138792481621     -1.05836145051115     -0.27985288126134
  O   2.89275269576809      4.76629350718766      0.25917952583082
  C   1.58968154108078      4.30410772418941      0.07367469722635
  O   0.63563048320314      5.03213868620422      0.13330434309016
  N   1.68719294868531      2.97555597581232     -0.18733817276949
  H   5.48091546578816      4.64162801161924      0.18373486910654
  H   6.77500681739841      2.56561588628267      0.38036608019121
  H   5.99389530455793      2.77859102623225     -1.19335773948940
  H   6.47613851129687     -2.32102913571235      0.33248482965639
  H   0.91217532220340      2.32128702640478     -0.15291767030330
