20
Coordinates from ORCA-job 2738optt
  Br  1.09815043241674     -0.10387855115575     -0.20757134401373
  C   2.95953940782394     -0.15136198639243     -0.07422861447624
  C   3.75372862521040     -1.27986040692877     -0.06663062703436
  C   5.10958283320257     -1.04054305232003     -0.04567729285146
  C   5.93607693611616     -2.12205126291145     -0.04596463114687
  N   5.07731717212019     -3.26860030954558     -0.06580324970544
  C   5.33710135886627     -4.54851510655885     -0.07553492925758
  C   3.64752721095807     -2.74818811805712     -0.07922739279585
  O   2.69994560912413     -3.46839295672288     -0.09618083184683
  C   7.28566878387891     -1.66993269328884     -0.05694449243174
  O   8.38192929670381     -2.21696108175610     -0.07047511081534
  C   7.13915284683314     -0.10577956494274     -0.05337217557146
  O   8.00343280715022      0.73284098766534     -0.05913751576342
  N   5.74700799464415      0.16854273225044     -0.04680165671259
  C   4.98767676211055      1.33399316520605     -0.05626308411132
  N   5.41674380948769      2.52748331140756     -0.05072282863967
  N   3.60966586303531      1.08685620112486     -0.07071387096152
  H   6.43879692500193     -4.61410634009189     -0.06275257125543
  H   6.43375414977038      2.52441314022575     -0.03933885585224
  H   3.05720117554539      1.92904189279245     -0.05865892475691
