26
Coordinates from ORCA-job 2759optt
  Br  1.26274972106044      0.77711211410097      0.60299170639622
  C   3.06910781311199      0.12575362041553      0.17972101357163
  C   3.30705208312184     -1.22967535045733      0.40251059961810
  C   2.24847906836803     -2.26128711448013      0.06026357688672
  C   2.78777413005833     -3.30241817871179     -0.94010149248270
  N   3.46290294486877     -4.26866329810478     -0.05332066379963
  C   3.17295722537338     -3.89314626745943      1.26284454342313
  C   1.84866728834092     -3.20746350191516      1.23292302383838
  N   3.99082361520747     -3.72489348522994      2.21780930089531
  C   5.37479877294968     -3.64521547081898      1.80004931599147
  C   5.59854329909892     -2.51127573859767      0.80929858161495
  N   6.80231578736893     -2.28555225429618      0.35750526838947
  N   6.80865531125991     -1.12039470666483     -0.34711636058164
  C   5.57549901245900     -0.64506609759990     -0.30937274667268
  C   5.09394131617129      0.62931477236301     -0.68274023148909
  N   3.87079048463849      1.04301947515994     -0.27315063127854
  N   4.73070392075979     -1.52620993423103      0.35913039098987
  H   1.38265027126821     -1.73445874180873     -0.33090063831763
  H   3.49764936662268     -2.86756769954674     -1.64404379440605
  H   1.97831891419383     -3.78146313059010     -1.49736462008561
  H   4.43979597632459     -4.40783131998017     -0.26040352234332
  H   1.64429425133855     -2.68031203267859      2.15839055097606
  H   1.01695525840186     -3.84815433547868      0.93251973200472
  H   5.77901211841093     -4.57043266137587      1.37100330689517
  H   5.98593424278896     -3.42724165297925      2.67528359999982
  H   5.75962780643315      1.33952299096585     -1.14872981003413
