22
Coordinates from ORCA-job 2768optt
  Br  1.00430034165156     -0.03931425461466     -0.15530062989466
  C   2.91111830958214     -0.01317685045007     -0.03880964458524
  C   3.64455631577655      1.20402747681070     -0.04511225321360
  C   3.07233366925414      2.54882594968865     -0.10826649003276
  C   1.82910023607063      3.07290468788674     -0.41611120215365
  N   1.87673084301924      4.43001461612543     -0.25767028145676
  C   3.13308675178351      4.82346016181349      0.13939154377193
  C   3.87403473622559      3.68200692569459      0.23135317321102
  O   5.18006020164554      3.59264941036114      0.60456466525782
  C   5.82879509059962      2.47949903900749     -0.00351374004396
  C   6.05457676056149      2.78954474820782     -1.47296654926168
  O   7.07049925021416      2.55448262991660     -2.06816838267322
  C   5.05380360454281      1.17225775578637      0.09518615889817
  N   5.84870994195389      0.13706739761692      0.23156411022878
  S   5.24425533690054     -1.40918235303307      0.21625666717217
  C   3.45529943199519     -1.31279344375701      0.05962372975188
  O   2.87508871075896     -2.39202275086787      0.06051637810178
  H   0.92258530987431      2.59138464219125     -0.72643176627613
  H   1.09956617368760      5.04575816381630     -0.40092228677336
  H   3.39144391256147      5.85074491598600      0.32444587081523
  H   6.79035570339467      2.35181771889097      0.48639332911154
  H   5.18469936794627      3.25104341292213     -1.98002239995530
