25
Coordinates from ORCA-job 2769optt
  Br  1.14115373895986     -0.15607482978696     -0.99768221916748
  C   3.26334007297816     -0.32005289386443     -1.25517160321993
  C   3.85450605913526     -1.35029324036788     -0.53610149301760
  C   3.51031654611769     -2.77564021786862     -0.29970402304317
  C   2.34741362270695     -3.09816178506278      0.66710297440515
  N   2.81689994187780     -4.20428182376434      1.51364181006412
  C   4.21091689628507     -3.86776131333634      1.78008567914057
  C   4.76452999619961     -3.25263467855949      0.48999861971155
  O   5.52929672664146     -4.24788444161393     -0.17393243591536
  C   6.03347886257967     -3.91295902195324     -1.38562464626933
  N   6.72518749948257     -4.69208712298775     -2.08839887412681
  O   5.59304925952605     -2.12891764766246      0.72612259245082
  C   5.02593252318665     -1.03314422558247      0.12716310065261
  N   5.62272624418946      0.12403921438374      0.23510832492780
  C   5.02492652406537      1.15139451366685     -0.41519936597073
  O   5.38002773736899      2.29695999304350     -0.43024136208103
  O   3.86665113151837      0.87127590836702     -1.20957010113176
  H   3.39858735600800     -3.36760027846530     -1.21300916722798
  H   1.42430602582375     -3.35452675662991      0.15259983346371
  H   2.14896472473509     -2.22971300000039      1.29841226663804
  H   2.78424264886737     -5.06688516459520      0.97913189645138
  H   4.79083283976445     -4.73117165587899      2.10040566180237
  H   4.24962197860120     -3.09906586844205      2.55435032207081
  H   5.79935990452761     -2.90398214679678     -1.72240963313409
  H   6.84373113885337     -5.58383151624171     -1.60507815747365
