19
Coordinates from ORCA-job 277opt
  C   0.80564105500226     -0.07023238504799     -0.03026577268301
  C   2.32633126482889     -0.13434967896140      0.08778114667117
  C   3.00249910512990      1.23094338834511     -0.11462015552122
  C   4.49382631999370      1.23220037764150     -0.04076027440676
  C   5.21339943045050      1.94653337122626      0.91781193164715
  C   6.60407501421818      2.09930651384743      1.01723667056011
  C   7.32394580185815      2.78068313042457      1.99389238965144
  H   0.33738029153273     -1.04761470011500      0.10884685798981
  H   0.50939583690906      0.30779488744129     -1.01249338003243
  H   0.39025411094329      0.61059071904723      0.71753777917850
  H   2.72870771821086     -0.83746812964005     -0.64804593000850
  H   2.61695012166341     -0.52040487570672      1.06825948745666
  H   2.60869582548619      1.91683698874397      0.64655180196273
  H   2.63198078203935      1.62032734696299     -1.08240318835917
  H   5.03131387499084      0.76237653969536     -0.86237553546522
  H   4.62521747637664      2.43513820450799      1.69919324962351
  H   7.18549335553595      1.60883800485892      0.23411455601233
  H   6.82332174270649      3.29099440474951      2.81030172408357
  H   8.40457087212355      2.83250589197903      1.96543664163929
