28
Coordinates from ORCA-job 2786optt
  Br  1.05799470852502     -0.00983313495951     -0.03121900863722
  C   2.97375799882383      0.08511237974202     -0.16419089567079
  C   3.60859351961226      1.31752548612306     -0.23065819076563
  C   2.81420912273548      2.61400422763906     -0.22550210603456
  C   2.77297605797686      3.29095572691182      1.14677397543210
  N   4.01580186402422      3.96830733959941      1.49775671522902
  C   4.39506468539545      4.89165622461761      0.43379204098391
  C   4.41244822088452      4.26599450535165     -0.96501797625668
  C   5.62063530727165      3.38044557549423     -1.21049184030273
  O   5.80055300768479      2.42218400014461     -0.19514011553488
  C   5.01796124478706      1.27757612647947     -0.26101593651652
  N   5.72741277101189      0.14507050671023     -0.25319170603638
  C   5.09455160635537     -0.99887310464599     -0.20662985531346
  C   3.67594851752438     -1.15406520283521     -0.15186666759227
  C   3.12476795237846     -2.46640742899049     -0.09356856785633
  O   3.80433119300039     -3.51839535537282     -0.09343686162726
  O   3.21151443834018      3.56071152533061     -1.21979173357935
  H   1.79517131194086      2.37057200953223     -0.51048239848766
  H   1.97553890490806      4.04156378401720      1.13143881483285
  H   2.52999297036094      2.55050354254641      1.90964823698038
  H   4.74841064372110      3.27252706428495      1.59189212187147
  H   5.37637480604539      5.31501825491086      0.65979778270509
  H   3.66984031671744      5.71193922665005      0.43296416518250
  H   4.43572835314251      5.06757829032025     -1.71106019598301
  H   6.52513219220331      3.99596128398968     -1.21465062246217
  H   5.51707318316840      2.88864462083555     -2.18407104234227
  H   5.68771252366989     -1.90651705214789     -0.20249177179652
  H   2.02750257779022     -2.53276042227907     -0.04958636042166
