26
Coordinates from ORCA-job 2788optt
  Br  1.44598834530284     -0.82926887582604     -1.16982470630905
  C   3.27206810888427     -0.42521981104808     -0.69714738190342
  C   3.54708076565543      0.82842314325283     -0.24107506326039
  C   2.77233611665964      2.07048595220365      0.03717933120529
  C   2.63236495030286      2.30741908308340      1.59383425890580
  N   3.58735124965352      3.26723090489973      2.15903562496460
  C   4.97991485911264      3.01537247667074      1.75781380801026
  C   5.09216216467493      2.51499209517493      0.28848693304791
  N   4.87536978618096      1.08520416374987      0.20681802290414
  C   5.90313324031207      0.14695771392546      0.00089666879360
  N   7.15353881901170      0.39369343992245      0.27128608976399
  C   5.44120523586962     -1.10169229941285     -0.50879819652892
  N   4.15567905353693     -1.39149499353252     -0.83123163636010
  C   3.83553771563028      3.07075508030321     -0.38089826849464
  O   3.72766416751135      4.10264137204938     -0.98620469578765
  C   1.25159937274906      2.75166864780480      2.01792074033058
  O   0.26623719591949      2.72232122581498      1.33631921171852
  H   1.81888134131047      2.16589396924281     -0.47350573851219
  H   2.80401531579931      1.34067173279208      2.08454815952741
  H   3.33270399170943      4.19638555613992      1.83741359153798
  H   5.41229027801899      2.24746523933300      2.40102308637326
  H   5.53408632920241      3.94412385295270      1.89713964077975
  H   6.01942512894505      2.82434277367437     -0.19298903065863
  H   7.26706662586134      1.32075887491784      0.67097812441971
  H   6.17992704306176     -1.88032114535720     -0.63572928005175
  H   1.21337279912355      3.13018982726844      3.05971070558392
