24
Coordinates from ORCA-job 2791optt
  Br  1.00500386470000     -0.28874606838593     -0.27457830966401
  C   2.89188076167865     -0.14528314293977     -0.07567527177632
  C   3.55539330445179      1.12221865676474     -0.06639499200045
  C   3.00221476657664      2.43888235815882     -0.10561395324023
  C   3.75161381521926      3.58684565038918      0.13627484879876
  N   5.11343828836191      3.48786718515203      0.50374736200074
  C   5.77499840828740      2.36081206460259     -0.14237946735865
  C   6.03444399602587      2.64348172418734     -1.58571501323893
  N   6.29006321924186      2.92901634383540     -2.66814153666825
  C   4.98149823951962      1.08358124726333      0.02499066566946
  C   5.64819391525191     -0.08846438173009      0.15407215891892
  N   4.95080665747433     -1.27811788377472      0.21958169209390
  C   3.55269059848967     -1.38503364943560      0.05138454935196
  O   3.06785969451494     -2.52218020017014      0.04608037778130
  C   2.90993836304195      4.71103898964749      0.03531278412411
  C   1.64904170863780      4.23515932770596     -0.26019963045072
  N   1.71663898847932      2.87098150960983     -0.34445037373462
  H   5.61282549351538      4.35108016791396      0.33485135142031
  H   6.75796408937798      2.22644634072206      0.31380526974741
  H   6.72716713721089     -0.14909647164964      0.19728185198597
  H   5.42457467129826     -2.16376126485887      0.25627020528348
  H   3.18201485849321      5.74636259587632      0.16704251617392
  H   0.72461869050126      4.76041715762356     -0.42478259658328
  H   0.95311646965005      2.24649174349211     -0.53576448863476
