27
Coordinates from ORCA-job 2797optt
  Br  1.04976059618108      0.30562195290026     -0.51590414726044
  C   2.86134830977423      0.23076021725741      0.03445492385978
  C   3.40615405051821     -1.06197197392007      0.19064397632178
  C   3.30477408839062     -2.29322671684389     -0.63764738318977
  C   2.86350823594044     -3.74897917991160     -0.53642804150597
  N   4.23450877353977     -4.39194684480330     -0.29968232986161
  C   5.39508823039883     -3.45342593231819     -0.46169906184723
  C   5.29729274508356     -2.74332969459072     -1.80828537915029
  O   4.00053609075736     -2.18870240259453     -1.90767499240354
  C   5.60900668404399     -2.30868882315348      0.67823029706877
  C   5.40689939905417     -2.89355305975461      2.00861382384696
  C   5.26532333950118     -3.36033120401729      3.10321843660375
  N   4.85129979131508     -1.03444339124935      0.50782654097911
  C   5.44666760194763      0.15180613461246      0.77779928804704
  N   4.90900034623852      1.31071752120411      0.73650620060105
  C   3.52295033801405      1.44154555812013      0.36118292227723
  O   3.03130366577813      2.56889504433446      0.33643222731727
  H   3.99952684308337     -2.62466768819799      0.07788236832833
  H   2.39367912117569     -4.13482382906799     -1.44308108015086
  H   2.23485255262748     -3.93639196773024      0.33271899764238
  H   4.39471974997866     -5.20205731902161     -0.88536976821498
  H   6.29299884115356     -4.07219348002896     -0.40519494147151
  H   5.43820052385777     -3.47408066803523     -2.61347048106874
  H   6.06108670330422     -1.96053865624954     -1.91307631036383
  H   6.66037775932672     -2.02480763652295      0.58650017793117
  H   5.11778326697388     -3.76973405516051      4.07280826620991
  H   6.49935235204171      0.07654809474328      1.05769546945426
