25
Coordinates from ORCA-job 2804optt
  Br  0.81475453002509     -0.33654834549423      1.88916718423405
  C   2.33329552842771     -0.66423543633312      0.74455347720223
  C   3.30726677926679     -1.68033217427832      1.06862081394785
  C   2.83758480684306     -3.02103539875147      0.62087839162891
  C   3.57607043146802     -3.96460590158362     -0.08742203427362
  N   2.77411827246932     -4.49828501441119     -1.06565255852505
  C   1.49705000162413     -3.99328985855006     -0.94992882559695
  C   0.75481622981510     -3.50822078561897     -2.14594493919414
  O   1.29881856025192     -2.19437478254742     -2.50339827223745
  C   0.61941334722216     -1.10512096426384     -2.04015434154314
  N   1.02916434367000     -0.17354965249630     -1.29941422478927
  C   2.28193991055260     -0.23571630065995     -0.62439971522744
  C   3.49526021284109     -0.07355183926835     -1.19827664272412
  N   4.62425658946328     -0.32005670916340     -0.40965984595893
  C   4.60682433180420     -1.38425127227609      0.53250553208322
  O   5.64815412290277     -2.02558975712443      0.69046610797875
  C   1.50333293117287     -3.17921761313565      0.15833107004774
  H   4.62953950487338     -4.18159006391455     -0.03840539646491
  H   3.07805224211489     -5.15249173986619     -1.76318292599784
  H   -0.31431633598422     -3.40166435674113     -1.94489916094770
  H   0.89747055946712     -4.13001494188149     -3.02981675428706
  H   -0.40981365669880     -1.05659923709465     -2.40717769348726
  H   3.64188330971971      0.15150165721618     -2.24558830233297
  H   5.52268086038364     -0.24712579255045     -0.86091823031582
  H   0.67738258630413     -2.53203371921124      0.40371728678093
