26
Coordinates from ORCA-job 2812optt
  Br  1.17218432783746      0.22707400500265      0.08253898039668
  C   3.07977509096085      0.08560425693729      0.05782270050481
  C   3.68463562670004     -1.14838568756664     -0.09867561168313
  C   3.05699883356854     -2.50241647382811     -0.29642524112376
  C   2.19832980883627     -3.07716302077481      0.85668811131456
  N   3.04256264030628     -4.06976985386441      1.53604323221391
  C   4.10855791402516     -4.15729220870193      0.85603993433695
  N   4.22379967343600     -3.42562141860001     -0.31846745365670
  C   5.47265497282261     -2.65860030762073     -0.50262372724306
  C   5.06374058376682     -1.25342494529821     -0.17987319638636
  C   5.80981340740632     -0.03484073223402     -0.11661303028510
  C   7.19889755070996      0.29528377910543     -0.16848577264069
  N   8.27606680187925     -0.38985098795972     -0.29669153738863
  O   7.32943916115183      1.66938954528085     -0.04524482094498
  C   6.05097391409195      2.27433405470357      0.10420566044288
  C   5.06657906221283      1.13854335993744      0.05212376882388
  N   3.76781147327017      1.26971814744806      0.14549319864534
  H   2.51610795556066     -2.53313623506107     -1.24488132205100
  H   1.30012284262743     -3.56509931295125      0.47291834893641
  H   1.88219168790687     -2.30841428625914      1.56129831217813
  H   4.93785909932879     -4.79947562813401      1.13903968801253
  H   5.83342549976589     -2.75946536757607     -1.53438815938203
  H   6.25363975427300     -3.06060614279797      0.15190340901306
  H   8.02533245082819     -1.37131506252812     -0.37731377865896
  H   5.88795601645316      2.99217159188050     -0.70383495616384
  H   6.00654385027360      2.80575893146045      1.05840326278909
