21
Coordinates from ORCA-job 2814optt
  Br  1.09189117667116      0.04855236216040      0.06554891185443
  C   2.97993559972708     -0.07444037809644      0.06759354842837
  C   3.66949793823943     -1.29758610945720      0.06887320550984
  C   3.11504622900994     -2.61484101063334      0.07013876078198
  C   3.94920111429574     -3.74059191056336      0.07094574162182
  N   3.09620639051766     -4.82071858443952      0.07227205157125
  C   1.82283470291966     -4.32103924163538      0.07224001896561
  N   1.78905725627067     -3.02621106434325      0.07111100597323
  C   5.34861047805723     -3.68687386062395      0.07062846749923
  C   5.89802505320463     -2.43061907196529      0.06971941144800
  C   5.10744633762663     -1.25273401176117      0.06902891582324
  C   5.72392619288168      0.01135270456298      0.06836264218863
  O   5.01707494608133      1.17772987526589      0.06805285402170
  C   3.62799820928605      1.19743902738911      0.06741245969997
  O   3.12313588871891      2.29630823777152      0.06672025047020
  C   7.11709522169090      0.18474145132098      0.06817727213138
  N   8.27157712109580      0.28358797079930      0.06802040202546
  H   3.36307938584738     -5.78822572313195      0.07332780960241
  H   0.95961426498982     -4.96942621165766      0.07317112624638
  H   5.96090795089390     -4.57887087111978      0.07113432949431
  H   6.97483854197436     -2.31453357984187      0.06952081464255
