22
Coordinates from ORCA-job 2823optt
  Br  1.32134548051105     -1.13629045624013     -0.18643269578023
  C   3.10239118158856     -0.53165562097967     -0.20278991534292
  C   4.03479302374071     -1.04008537609885     -1.02970982898418
  C   3.93097522857242     -2.05542242405738     -2.14708094633881
  C   3.00115679780314     -1.73434936842716     -3.32424372892734
  N   3.29079124796033     -2.54926605941304     -4.50688461582100
  C   4.47181949772622     -2.98068504030136     -4.67567741809149
  N   5.54830627847193     -2.79417284972031     -3.83722835027829
  C   5.34538905382094     -2.08257685655548     -2.65983636945368
  C   6.11361086834157     -1.26927163403303     -1.93436447621039
  N   5.35377269129889     -0.65827209096427     -0.93611323325972
  N   5.99363567852905     -0.02520314305748      0.12509927653523
  N   5.18798973855952      0.22297436333908      1.17460133867307
  S   3.68502643521564      0.71859894993986      0.90128910683407
  O   3.62847403979910      1.96189584066208      0.16228143277772
  O   2.93260309178713      0.65063148963196      2.12649353131634
  H   3.64889700703424     -3.03610603962530     -1.74504379363592
  H   3.10043687419227     -0.67705666355673     -3.58768036583084
  H   1.96249786934657     -1.89825231895146     -3.04330193334097
  H   4.70328634369937     -3.57090485312701     -5.56014206468509
  H   6.46891318093753     -3.05429561948029     -4.14214430433283
  H   7.15888839106375     -1.01523422898400     -2.00809064582270
