22
Coordinates from ORCA-job 2824optt
  Br  8.32758408328415     -6.88114746855711     -3.64978002431330
  C   8.30993918042072     -5.48720717834590     -2.36205863541705
  C   7.29101760597789     -4.62324589058400     -2.24255444112567
  C   5.98731760324674     -4.60600971617389     -3.00149398264847
  C   5.51178309728418     -3.14540236482256     -2.85644295116967
  N   4.08714090649896     -2.88979123006649     -2.88356086629023
  C   3.33001636213127     -3.82672498693930     -2.52647151371358
  N   3.74046205192314     -5.11081092406735     -2.17644226567791
  C   5.01021671561127     -5.60494204584793     -2.39763072735071
  O   5.27045381125889     -6.75739092549607     -2.15751354337112
  C   6.18424651617215     -2.66424118246232     -1.54011707435015
  O   5.83162775949343     -1.67688715889572     -0.92041231055540
  C   7.31526152483330     -3.54131528028495     -1.29514028779834
  N   8.23279472517764     -3.29685879529507     -0.36427129903401
  C   9.32986202802494     -4.05965127332312     -0.21967005504416
  N   10.24252250274327     -3.94668595771121      0.67229939778294
  S   9.74507838685300     -5.41301039577858     -1.37928093504413
  H   6.12513742641608     -4.91305405925591     -4.04257724532903
  H   5.96248979405819     -2.55411243902430     -3.65801042083510
  H   2.25401506290706     -3.67782499032307     -2.47212793555112
  H   3.06407132371421     -5.78559016970451     -1.85390741773415
  H   9.98396153196935     -3.16009556704056      1.26816453457041
