23
Coordinates from ORCA-job 2825optt
  Br  0.95733998904890      0.07666642532070     -0.10736714684591
  C   2.89075200087417      0.09401851893519     -0.00881133370124
  C   3.58457902922230      1.31672691751960      0.00153988967695
  C   3.54411725755677      2.75158015601758     -0.06365638876233
  C   4.90164864207899      3.24764015341537     -0.06325470342531
  N   5.39414740875347      4.54874981159781     -0.14669967767426
  C   4.68651016402854      5.60430743663658     -0.12282940838499
  N   3.32788817405313      5.81403544244334      0.00090405416970
  C   2.25519785064241      4.89208432369424     -0.09059373962215
  C   2.34766392349971      3.55933140667667     -0.11183611537774
  C   5.74645312256413      2.10895415915218      0.01697766536231
  C   4.94803621771438      1.01491723119959      0.06160980725759
  C   5.66216984065573     -0.17572331876208      0.06891368332791
  C   6.99101413813142      0.27641787220211      0.04609099553048
  O   7.04969321150634      1.66627042158338      0.01313099431095
  C   4.78361433982907     -1.29804490263920      0.06219177776861
  N   3.45752224255984     -1.10062422337955      0.02628187370205
  H   5.21888315324051      6.55400896163359     -0.18524623737221
  H   3.06196135973360      6.78023078567007     -0.05994142707901
  H   1.29121566842109      5.37985808236637     -0.13021387099190
  H   1.40853917051434      3.02275067757818     -0.16802149048789
  H   7.94917163604638     -0.21220891839985      0.05260625259696
  H   5.11388145932464     -2.32894742046194      0.07622454602144
