27
Coordinates from ORCA-job 2831optt
  Br  2.18548481821187      0.51292862315186      1.92344845025807
  C   3.71349252126096      0.36754954008973      0.74488168906981
  C   4.26593807493930      1.51575014723406      0.26208640605802
  C   3.90614520252024      2.93692769103105      0.53157559206278
  C   3.95979753095540      3.66367096474562     -0.82370234914876
  N   5.31858831670806      3.61783170116159     -1.32399599326068
  C   5.95516257327596      2.54396633434925     -1.08965190725263
  N   7.37389512912963      2.57333358315352     -1.06204072882329
  C   7.84396482103792      2.78957059595578      0.23822820035971
  N   7.36001031460798      3.40014114524107      1.23645123693782
  C   6.16938438356688      4.24798331470489      1.28434651830168
  C   4.79895962687737      3.60849472678805      1.61579790593846
  N   5.39226943788048      1.37629435295417     -0.57266145578976
  C   5.95500263385154      0.07977621096976     -0.82432801394148
  O   6.96365734571096     -0.01325933905595     -1.55408700860367
  C   5.25030119792043     -0.97853985412168     -0.23440304273345
  N   4.13339842464798     -0.86551609536051      0.52264533047860
  H   2.88641219387049      2.95497325862106      0.91331669454871
  H   3.67549778248331      4.71504375880019     -0.71940640638527
  H   3.24955794120679      3.19672169330200     -1.51515588470819
  H   7.74528959635351      1.69717783242188     -1.43295799660479
  H   8.81608300856601      2.31456636712409      0.38441243150958
  H   6.08544396294602      4.86575837939117      0.38877735907556
  H   6.36072646510653      4.92297282883041      2.12311602232924
  H   4.20339142700819      4.42886667213946      2.02912874848158
  H   4.93835347742192      2.88863303144218      2.42645248477277
  H   5.62879179193421     -1.97361746506474     -0.42727428293044
