25
Coordinates from ORCA-job 2837optt
  Br  2.15488738076162      0.06824969333264      3.05399004190678
  C   3.39354499690360      0.07190602363978      1.60283992742691
  C   3.52060069991857     -0.98431529284446      0.78766724701260
  C   2.72562178004604     -2.26966547318499      0.82881589336558
  C   1.29163074453295     -2.08932858618963      0.32042060029217
  N   1.30557055608682     -2.10769325600865     -1.13622686494783
  C   1.71163751333967     -3.28383354418454     -1.73781992382220
  N   1.33150223120260     -3.77024511756586     -2.84666456664285
  O   2.60136158117851     -3.96703234814323     -0.99183669421474
  C   3.47137331731596     -3.19504757278705     -0.15050078619855
  C   4.42380617391483     -2.27872820514075     -0.94346377462498
  O   5.04403665975080     -2.65650901194765     -1.93166947259381
  C   4.46129042878214     -1.00115564985385     -0.29338215679326
  C   5.28088607195279      0.06702415952732     -0.64637989424372
  C   5.31664555309898      1.31985560773109      0.01395114791099
  N   6.00682121719655      2.37665179426666     -0.25328411248378
  S   4.29876974343538      1.56542122222848      1.48556974047351
  H   2.69094006425020     -2.67556168577463      1.84112488030359
  H   0.65849406665003     -2.89318602902998      0.71498346984610
  H   0.88638766999580     -1.13715950192490      0.65698324433819
  H   0.55280643663504     -1.63373802836037     -1.60555582905995
  H   0.59394276007525     -3.19783166900627     -3.24679265271647
  H   4.05650060151694     -3.95318783875375      0.36996527759669
  H   5.93911129267999     -0.05509540173856     -1.49994899960593
  H   6.57983045877890      2.19720571171315     -1.07678574252504
