21
Coordinates from ORCA-job 2841optt
  Br  1.20504656622648     -0.19419533802889      0.07909987520956
  C   3.06162135595305      0.02843514291229      0.07605209685145
  C   3.73481027130741      1.21386431468932      0.07593653412763
  C   3.17167556577891      2.55268410723718      0.07709645959174
  C   1.89170940811469      3.04792907355402      0.07796377875148
  N   1.97333978175479      4.43603262617446      0.07892019152202
  C   3.28178233513975      4.89829294587026      0.07875213467160
  O   3.60513791362450      6.09027397035738      0.07967851652296
  C   4.06933696410800      3.68344989162262      0.07740168734561
  C   5.44533889026270      3.55674725134599      0.07611135553816
  C   5.96836180309901      2.26569435667603      0.07463515831971
  Br  7.86864636053865      2.05250823295173      0.07255956810682
  C   5.16579788057210      1.13435391802060      0.07463446428410
  N   5.71364558910876     -0.16008042373502      0.07360024628049
  C   5.02328267457289     -1.32690204835865      0.07355309960384
  O   5.53598447538140     -2.41694351830885      0.07257009734250
  O   3.67479408772914     -1.22174490368626      0.07470334268662
  H   0.93793028283054      2.55589213004073      0.07788966817159
  H   1.19173157250723      5.06658789210919      0.07980709514160
  H   6.08437020472204      4.42852350280407      0.07623387351267
  H   6.71665601666795     -0.26140312424822      0.07280075641785
