24
Coordinates from ORCA-job 2842optt
  Br  1.03296110784331      0.26931943142227     -0.61035230736184
  C   2.91300994344559      0.09067772798599      0.17944555857327
  C   3.61745038322794     -1.04305292852258     -0.21401243607456
  C   3.09666955400568     -2.43683104188626     -0.39484395140398
  C   2.26424097276215     -2.94949353193064      0.79367683839552
  N   3.26923953874989     -3.53690398619129      1.66289426317668
  C   4.49319531087486     -3.69629746847227      1.11020419229567
  O   5.48467396948193     -4.11715208852465      1.66858530641479
  C   4.39952372336696     -3.26173242565710     -0.35278308691640
  C   5.56455167858152     -2.31029726878043     -0.70293061994070
  C   5.98717143238151     -2.45980166199709     -2.10004755634401
  N   6.30499546900797     -2.60893767340093     -3.19217560968392
  C   4.97907096120317     -0.93529086826237     -0.42864513052765
  C   5.65032556617771      0.27397020960148     -0.40103410080934
  C   4.92424332881817      1.45632268386932     -0.09125469531407
  O   5.32302919612110      2.59622934388824     -0.03942198885788
  O   3.55472081418140      1.27354306810299      0.24253093885629
  H   2.53681710689983     -2.54164162360402     -1.32675767872753
  H   1.53169364970952     -3.69813261870066      0.48106389107474
  H   1.74376068782788     -2.12495374469674      1.28057655150694
  H   3.13482451005563     -3.70942295208851      2.64504933818674
  H   4.39363857740165     -4.15698471463725     -0.97690171335914
  H   6.42977810713404     -2.53441148844095     -0.07185149395386
  H   6.70541441074046      0.37627562092352     -0.60301450920574
