25
Coordinates from ORCA-job 2844optt
  Br  1.19939531650711      0.11861050924011     -0.81055476808254
  C   3.07386281580689      0.13499556697504     -0.46531867754542
  C   3.76627454046118     -1.05561278459452     -0.48490882183023
  C   3.13941193628976     -2.37532216847909     -0.84453017772045
  C   2.42518204795923     -3.02617543842922      0.34437690356773
  N   3.39740167004182     -3.59469052642561      1.26710094972972
  C   4.65265104075217     -4.01722051378353      0.93931297230446
  O   5.30780745647375     -4.72707129033196      1.67832080836659
  C   5.19213003117229     -3.48880533075329     -0.38940991879519
  N   4.15520938551067     -3.27098123365281     -1.39594252038729
  C   5.92389013427955     -2.18951580613223     -0.13531076574146
  O   7.13529760421090     -2.14093621330714      0.10708197973632
  N   5.13665137520070     -1.05556574565744     -0.19160550981124
  C   5.74980247447768      0.17673191739810      0.04527060943342
  C   5.05887802202403      1.33516103189451      0.03978000431964
  C   3.63510675832761      1.42902806052973     -0.20050642919696
  O   2.99783149155463      2.50659215531753     -0.18125358248437
  H   2.39220701203985     -2.19255828878302     -1.61570900454441
  H   1.75537442721554     -3.81218733087110     -0.03416334564286
  H   1.81667392698119     -2.28424240155525      0.86072096019363
  H   3.05994718792299     -3.97473530461372      2.13882468021487
  H   5.93388585120958     -4.20136742022881     -0.74299115453551
  H   3.72189629413278     -4.15384643769920     -1.64572964025168
  H   6.80767742509806      0.09622114786041      0.23490408142040
  H   5.58555377435000      2.26049384608254      0.23524036728283
