25
Coordinates from ORCA-job 2846optt
  Br  2.11978886368990      0.12221668467057      2.08896176581746
  C   3.30590113744591      0.50921710934048      0.55708799065911
  C   4.33855418701779      1.42854164869146      0.70405639822985
  C   4.40799796870737      2.84388224863952      1.24046595884690
  C   5.94653376673286      2.97753164603954      1.38990457386702
  N   6.42130750889406      4.31131375849265      1.68231105027427
  C   7.25301330616462      4.61563261954506      2.69796875088796
  O   7.68473189035800      3.84404151736474      3.52669433680735
  C   6.20747896831920      2.54382385966099     -0.06775765151506
  N   5.38535530436098      3.58187932933718     -0.75245272708283
  C   4.19678205334151      3.70909347741156      0.00526572031843
  N   3.16452026372413      4.39329827772916     -0.25875570034403
  C   5.45392998077828      1.23253587053360     -0.09757102826838
  N   5.73596012422304      0.18282420482065     -0.85192567642011
  C   4.82310452927548     -0.83524878576332     -0.77515732332304
  N   4.95191518461058     -2.00956410800687     -1.25144262472813
  O   3.58097857043141     -0.61195336021106     -0.16393361595703
  H   3.78141411293798      3.09956468938016      2.08873964445234
  H   6.35632123180873      2.29131918109180      2.12330673390174
  H   6.18238034608533      5.03876626331774      1.02524678276105
  H   7.51647191180270      5.68765168180987      2.70758176124875
  H   7.23651631702775      2.53867411709154     -0.41502751603751
  H   5.24002751641939      3.42346454677300     -1.74086017555959
  H   3.25121129025510      4.84448728192872     -1.17001158120892
  H   5.87180366558753     -2.04799375968890     -1.68169584762764
