24
Coordinates from ORCA-job 2848optt
  Br  2.10543414590041      0.36973650973517      2.25329037797171
  C   3.29167187590490      0.35899565607480      0.75915963878888
  C   3.51906346431224     -0.84728019498437      0.08226955199383
  C   2.89888385461996     -2.18316744229056      0.35584682016881
  C   1.41389780288381     -2.27274287494139     -0.04146829769624
  N   1.24946008105128     -2.44302346594675     -1.47912871614286
  C   1.86079416205112     -3.44223244351238     -2.15226678333684
  O   1.63549472802146     -3.76498792434892     -3.29665022757075
  C   2.93602342535642     -4.13014610827880     -1.28494646671285
  O   3.08247137042126     -5.32136260897043     -1.28146936031180
  C   3.77975540655778     -3.14730919216386     -0.49814169064967
  N   4.43264259920502     -2.28141982164086     -1.47065169300742
  C   4.42329488905645     -0.94877728569867     -0.98683537590729
  N   5.18503281797451     -0.05290278725905     -1.53743393074114
  S   5.05517494662049      1.52375550688450     -0.96422418821067
  C   3.91229344229463      1.58382542423062      0.42812710813547
  N   3.72787302571714      2.71335162694531      1.02639892214807
  H   2.95785416349128     -2.45291672183088      1.41378800915623
  H   0.93523927228819     -3.10452412904959      0.48804317947227
  H   0.90936972501519     -1.35757440359926      0.25929711491267
  H   0.56232525885604     -1.90656504232709     -1.98479426527937
  H   4.48198452304368     -3.70375862987163      0.12805953703969
  H   5.33018374541072     -2.59054517756499     -1.81440784507295
  H   4.29778127394594      3.44457153040912      0.60513858085221
