23
Coordinates from ORCA-job 2853optt
  Br  0.66874771435921      0.61725763996803      0.04239590387234
  C   3.08845370034537      0.05369746023106     -0.39138148666408
  C   3.71711443954383     -1.16760580129091     -0.35058773832454
  C   3.06498142819316     -2.46388160218798     -0.54802500663405
  C   3.63221478302181     -3.68289686709521     -0.20113582407352
  N   2.85837600994092     -4.78916506726641     -0.37954731691961
  C   1.71345400671858     -4.44013519398046     -0.88925841028041
  S   1.48334696595914     -2.75302113256215     -1.13957497546877
  C   4.92606597215105     -3.47977447603551      0.49651086703534
  C   6.41702563846799     -3.62679962142729      0.31638034926103
  C   5.70686562707150     -2.47765436436559     -0.31712484449333
  C   5.14512095636306     -1.11858997864371     -0.08597983614907
  N   5.82427009214926     -0.05334231919154      0.20736254085054
  C   5.14911556145608      1.15374470188653      0.28300378081131
  N   5.65885052417887      2.27052151185656      0.64673348223843
  N   3.80102059675567      1.14284717083385     -0.10330633259201
  H   0.92939521074803     -5.14392888858522     -1.12969935610627
  H   4.74287201282404     -3.08779447372607      1.49650633337686
  H   6.83245281555652     -4.34181647703225     -0.38159713232585
  H   6.98346087682714     -3.50905391094905      1.23037351734491
  H   5.55316849900152     -2.70396754230604     -1.37003664985952
  H   6.63656377464584      2.10855625867967      0.87009842493725
  H   3.32706279372127      2.03680297318973     -0.07611028983700
