19
Coordinates from ORCA-job 2857optt
  Br  1.14157931329427     -0.27388837177766     -0.09671208632382
  C   2.98997054320659      0.00681775902230     -0.03010170338137
  C   3.58612493655090      1.22191135006456      0.03246255482592
  C   3.00643590362121      2.51250548407844      0.05798606228731
  C   3.76491673771715      3.65770652349966     -0.01084039543114
  N   5.13147185399094      3.57792564565263     -0.12517747307618
  N   5.75929276634036      2.40739106849594      0.04606008853697
  C   5.05374495133257      1.33848918068786      0.11710196721709
  S   6.02009497374539     -0.09724465389355      0.48061042314586
  C   4.93397478778873     -1.44016515397862      0.11636915806825
  O   5.36926133377167     -2.55484754295480      0.10876221261976
  O   3.64438486978302     -1.21453160321529     -0.14313089863527
  C   2.91639531384014      4.79338119626493      0.03230772685588
  O   3.18863596830406      6.01529776388188     -0.00497997387230
  C   1.56646456688645      4.19623340143790      0.14578853962272
  N   0.42002102808807      4.73280769168613      0.24017650150305
  O   1.67816016063629      2.81095399610341      0.14678394611220
  H   5.70001087660433      4.39896209694364     -0.01235800817091
  H   0.57605911449781      5.74129416800060      0.22089135809598
