23
Coordinates from ORCA-job 2863optt
  Br  1.32756688388986     -0.32495362003872      0.80580189024828
  C   3.03864587355260     -0.04614667523771     -0.13296303197815
  C   3.66998118521294      1.19919132690874     -0.07256368464054
  C   3.02606178716714      2.50215723651290     -0.08283238675534
  C   3.78628999075639      3.64554189563762      0.02015659740631
  N   2.95829390407346      4.70741346699955      0.04441693694799
  N   1.67475344183846      4.32928613504097     -0.03657237417989
  C   1.70642515231160      3.00551676648829     -0.12148353020096
  N   5.17615889667526      3.66238452157284      0.09684785329387
  C   5.85733110460199      2.42796103016740     -0.32864181501228
  C   5.06308433231969      1.16607456993788     -0.07069854501750
  N   5.80911069585615      0.06757865515819      0.03538758386516
  C   5.16651651849326     -1.12729740604543      0.11536786390308
  N   5.68863814575985     -2.26847910553409      0.34196969533370
  O   3.78878062315925     -1.17239953635058     -0.12383389822256
  C   5.86808340903735      4.77627997083347      0.40641586441585
  O   5.37907535681347      5.87157272826304      0.62346069618560
  H   3.23473876931733      5.66377889145055      0.18983122498901
  H   0.78797534199384      2.44804047065979     -0.19372911422884
  H   6.80659220692896      2.35405473809978      0.19875278824493
  H   6.06770476087548      2.49262518868526     -1.40355292674878
  H   6.68557457587398     -2.11337934308504      0.46423112255391
  H   6.95361704349154      4.59919809387525      0.44223118959716
