21
Coordinates from ORCA-job 2865optt
  Br  1.22602622433334     -0.20795773272373     -0.89289175637717
  C   3.03459159242214     -0.00055277940672     -0.35509159278429
  C   3.67500086140751      1.22039909429188     -0.20970182938847
  C   2.96252349650818      2.50113389415627     -0.13981967549637
  C   1.65182757564891      2.71428530257480      0.23258768784536
  N   1.45575599759572      4.04220594000001      0.23008506670164
  N   2.54391747312008      4.74010135769178     -0.12227168156261
  C   3.48515411308553      3.82641824765447     -0.32776580610837
  N   4.74139814598377      4.27404150004163     -0.66260261086364
  C   5.77520170980961      3.50080042696433     -0.52325815770028
  N   5.96538826357162      2.22708041119275     -0.14577752258237
  C   5.09155701159094      1.22072633287866     -0.05397830154850
  C   5.76210624916176     -0.07288992169811      0.22112765244395
  N   6.98549419198305     -0.22884415382219      0.50008727283670
  O   5.01028333561082     -1.21598020189734      0.18674437207085
  C   3.70107810541519     -1.26910232797628     -0.18820989557947
  O   3.20367734825327     -2.36239054092268     -0.31280069142027
  H   0.86736242243892      2.03341871102563      0.50575204538710
  H   0.60398445167340      4.53133683487167      0.43429930804401
  H   6.72026484353860      3.99823784825476     -0.74329385964486
  H   7.40440658684757      0.70053175684838      0.47577997572706
