21
Coordinates from ORCA-job 2866optt
  Br  1.40825410871717      1.54785459248372     -0.55284868281507
  C   2.62759549391920      0.10224140128726     -0.47863363973978
  C   2.88184886003553     -0.78542445609855     -1.47421404096672
  C   2.37417568668199     -0.63804442873852     -2.83489867638057
  C   2.16543586160749     -1.67152516387827     -3.75632563781036
  N   1.70038408409353     -1.06894935086856     -4.87398037754615
  N   1.62976017490238      0.26847950124883     -4.78449097712691
  C   2.03112687309168      0.53442192017988     -3.55829142278336
  N   2.29927848155728     -3.02064313586841     -3.75315978870396
  C   3.03458149038186     -3.57620011641821     -2.81582190657143
  N   3.78617530186334     -3.10397830628119     -1.83269228600590
  C   3.81582223817775     -1.90792052892522     -1.23107654144944
  N   4.81335175055021     -1.76492379554345     -0.32881505319782
  C   4.80192289805712     -0.89289971307599      0.62361672631750
  S   3.35269670270286     -0.05331977490460      1.10635298309820
  O   2.52269141857071     -0.89636755556934      1.93596466093012
  O   3.69433675353940      1.24745201087971      1.63322871566277
  H   1.44710042172357     -1.54970895445254     -5.71944578109775
  H   2.08386788858109      1.55799001830801     -3.23138337471505
  H   3.08704237944166     -4.66130352890417     -2.90006645587072
  H   5.67655113180415     -0.69323063486039      1.23298155677242
