24
Coordinates from ORCA-job 2873optt
  Br  0.91709712798300     -0.46255063627692     -1.15624714773667
  C   3.05041656616840      0.00844774622904      0.05163372827380
  C   3.75308546120550      1.20141244832553      0.08721139852199
  C   2.99397665899171      2.42263183786671      0.28934089535652
  C   1.67955380463975      2.54834918970363      0.66753710664578
  N   1.37462223815438      3.86745889476699      0.80338220453534
  N   2.39180848458824      4.58868120760280      0.54379232237013
  N   3.41394211648682      3.73800372510213      0.21437479492615
  C   4.60706349482113      4.29262454463981     -0.27008237513675
  O   4.81013000066630      5.47377780635601     -0.27667478937536
  C   5.59145625617384      3.28892101780094     -0.82501065736912
  N   5.93916374201209      2.26541289838111      0.14511274153747
  C   5.17931878038783      1.09397960578319      0.13040931060934
  C   5.80306962107480     -0.12265244057644      0.18417712332141
  C   5.06451515963675     -1.35288612235748      0.18832982831167
  N   5.48982232328051     -2.56752592057010      0.24783746426846
  N   3.68270086197223     -1.16100096919872      0.08210107899462
  H   0.96207681496010      1.76302250207078      0.82676769468681
  H   6.47830358611997      3.85932876053348     -1.08920120647375
  H   5.16634627318694      2.85180534037872     -1.73749385864668
  H   6.92930442987015      2.07516608101553      0.16484499971921
  H   6.88454235581659     -0.18079879891810      0.18992157610358
  H   6.50281055483404     -2.57263128148354      0.31863697677460
  H   3.12687328696868     -2.00397743717517     -0.00370121021855
