24
Coordinates from ORCA-job 2874optt
  Br  1.19445153288492     -0.29689182709313      0.74435051106635
  C   2.88266482084312     -0.07157117401611     -0.21284848903447
  C   3.55601225658333      1.15553599149331     -0.16494157837449
  C   2.94052174261327      2.46614653642461     -0.18413665530892
  C   3.70958868138792      3.59894812238376     -0.06638670964803
  N   2.84184946054106      4.62486306442062     -0.14613151679806
  N   1.58254731758555      4.15961382303591     -0.29497824359793
  N   1.64673427264684      2.87154869114127     -0.32684950123880
  N   5.08685897482843      3.62593884995711      0.05043825191101
  C   5.78324849592629      2.38638044018199     -0.31279124271234
  C   4.95715228292927      1.12920723179650     -0.14530360059081
  C   5.64693057787984     -0.06991861910854     -0.05893423266321
  C   4.94632519659219     -1.31503875127525     -0.04310957603356
  N   5.40104716507878     -2.50714719205666      0.07586539382998
  O   3.57524731126709     -1.24806307303177     -0.21893143357422
  C   5.78033516889627      4.77757993486798      0.29069418414339
  N   7.03228181656886      4.99185495791772      0.20754359343243
  H   3.00134139541772      5.61609496979834     -0.12213019095380
  H   6.66327480620690      2.30803685643301      0.32946239336518
  H   6.14116125832327      2.47027718342652     -1.34965668883399
  H   6.72661187969891     -0.09813260624118      0.00137674077838
  H   6.41009792514679     -2.45288129898100      0.18354092031773
  H   5.14163251957224      5.60158727882227      0.61044616148317
  H   7.53608314058105      4.16903060970266     -0.11758849096499
