20
Coordinates from ORCA-job 2877optt
  Br  3.09932779340980     -0.23891528278422      3.06577779964070
  C   3.42795731186344     -0.18649224479584      1.21259104527005
  C   2.95342687713870      0.86609956801323      0.40447796458779
  C   2.38595051545939      2.11525836674117      0.85370518178754
  C   1.41886274405612      2.82874240017813      0.18570292428804
  N   1.23835874859312      3.94946467840458      0.91906965825291
  N   2.01921255886011      3.92847929074565      2.00650501040349
  N   2.71737754607086      2.84774461947918      1.96603402514973
  N   0.74830744038015      2.54075816127998     -0.99174284229681
  C   1.31723753066498      1.85168344206724     -2.04013820703958
  O   0.70055708440726      1.56113595913045     -3.02571246634716
  O   2.64677119256033      1.63636593619339     -1.89171292529332
  C   3.06930103092895      0.64762607298254     -0.98577553592624
  N   3.61071173298041     -0.35330845043551     -1.59477894597175
  O   4.16783356913507     -1.32856192549757     -0.75775823113762
  C   4.00223618353970     -1.34581038963379      0.62494463150146
  N   4.39876358623626     -2.39335898878752      1.24531184607755
  H   0.63623677569334      4.73578284118466      0.74672450215851
  H   -0.25206006650676      2.64739081745719     -1.05206450582347
  H   4.75462984452872     -3.05808487192296      0.56183907071820
