18
Coordinates from ORCA-job 2878optt
  Br  1.26036530349835     -0.29933616971970     -0.97800414257952
  C   3.08382981842538     -0.05045133449964     -0.52663371839495
  C   3.65338252816350      1.13740610682958     -0.22822465664283
  C   2.91812972984885      2.37361487881568     -0.01996437647988
  C   1.67109306974137      2.67063229823500      0.48228573782294
  N   1.49485289468704      4.01293639769201      0.46018606741300
  N   2.54745251601952      4.57275441609376     -0.03304448730080
  N   3.42257731249410      3.60555182138099     -0.29847044119311
  N   4.60624891950388      3.98690822562906     -0.97148502310670
  N   5.62938292248772      3.35323288873118     -0.73130738174008
  C   5.87084446435669      2.27131124445695      0.19915623420437
  O   6.89266042424581      2.36616918557880      0.85485407249135
  C   5.06901745112608      1.06592714862876      0.07779019046948
  N   5.69219150290213     -0.09200137155292      0.28664213078334
  C   5.08141919258697     -1.25365987114644      0.05595006785933
  O   5.47341539785243     -2.37241689643183      0.21956306928318
  O   3.73992084596161     -1.19648882096493     -0.53194242096427
  H   0.91421570609851      2.00190985224367      0.84964907807514
