21
Coordinates from ORCA-job 2885optt
  Br  10.26986826894892      2.64067667389598     -0.14095096529686
  C   8.94456868187113      1.29357947537149     -0.10165778166303
  C   9.25722833941730     -0.01980524935873     -0.06865776741016
  C   8.25676164984782     -1.03882278860824     -0.02759066261526
  C   8.71748226473742     -2.32316132941113      0.03187359769032
  N   10.16904751030129     -2.33039364092339      0.07257630983693
  S   10.81761808845822     -0.80996436918378      0.05140643117829
  O   11.41884057998089     -0.49069122522087      1.31296297696635
  O   11.63816158907233     -0.67586313150718     -1.12551595895622
  N   8.16616027732907     -3.55506878115654      0.02529407134053
  C   6.86715260908168     -3.73185993144266      0.00995197793340
  C   5.81003874010374     -2.77186351654103      0.02160861909309
  C   5.81744645817663     -1.40637331581202      0.02184953815398
  N   6.91115276531704     -0.54582386541990     -0.01191700531791
  C   6.73705293253996      0.80118133833262     -0.04710170146543
  N   7.64566290006719      1.72662979144178     -0.09404551046505
  H   10.57624892330185     -2.91141795516564     -0.65211002941821
  H   6.54761226940453     -4.77051290755214     -0.00532292069564
  H   4.81335129270978     -3.19756000718978      0.03713601009583
  H   4.87481236203298     -0.87530902001571      0.03785923372493
  H   5.69673149730011      1.10942375546688     -0.03364846270989
