22
Coordinates from ORCA-job 2896optt
  Br  1.06829720057347      0.12708738702961      0.31158938492183
  C   2.95346862547657     -0.04857366079833      0.08659009983244
  C   3.62666562337293     -1.20151110272710      0.55677344401761
  C   5.05126216787833     -1.03794924890081      0.79449423696703
  C   5.87516241078192     -0.28271761286176      0.05253127508990
  O   7.13281169731940     -0.85505529265362     -0.16700983602194
  C   7.06882829208697     -2.17231455847660      0.37981892919770
  C   5.89074293088555     -2.99820477421450     -0.18483423264825
  C   5.00510924111123     -4.18839213247493      0.09768181255687
  O   3.83478620871152     -3.70580599589469      0.79188839432084
  C   3.08681407373086     -2.55489969746277      0.36923645672376
  O   1.99372638861237     -2.79824460121450     -0.08695484744087
  C   5.82595904464372     -2.22394291427549      1.12985745132770
  S   5.32704216132153      0.98789753443096     -0.98403942698606
  C   3.57902742373942      1.11828136027834     -0.43273417221099
  N   3.00159758159031      2.24422819569183     -0.68395984123831
  H   8.03519368681432     -2.55233154592289      0.67379922760875
  H   5.45262207356194     -2.43128589237530     -0.99912731091382
  H   5.44211875075071     -4.92736416097145      0.77000006348989
  H   4.69358710409985     -4.68357903928147     -0.82477522592188
  H   5.66218178601250     -2.82330273364628      2.01082769480895
  H   3.65699552692444      2.91498048672178     -1.07465357748115
