26
Coordinates from ORCA-job 2903optt
  Br  0.90845131616927      0.13027025807919      0.17536752820671
  C   2.81649805395122      0.01317727880781      0.10429573228733
  C   3.50846916196616      1.18588638412098      0.04718932882119
  C   3.09215406141660      2.63563923673759     -0.01324464985072
  C   3.40242411893645      3.22141320836113     -1.41197771833931
  O   4.72700194007906      3.76584868372262     -1.36493074776559
  C   5.31369258499496      3.45847063273666     -0.09010130616897
  C   4.08083737979912      3.47587697114100      0.83132888925872
  C   5.87542750339501      2.06529779531303     -0.07414586271658
  C   7.09446122685470      1.43471857948003     -0.10387215082152
  N   6.86704983500033      0.05201487499686     -0.06453704709105
  C   5.50823824530269     -0.20429653345960     -0.00630622780172
  N   4.87744200085547     -1.35889522997932      0.04929826922854
  C   3.48664755596522     -1.27617980363828      0.10634559050550
  C   2.83186743871831     -2.54626577520507      0.16074826634350
  O   1.62168510731320     -2.81133328253464      0.22262860645169
  C   4.90751558125656      1.04666223460722     -0.01298621709555
  H   2.05109678348041      2.78184902240049      0.26494273921756
  H   2.71339507723441      4.03346280168405     -1.66127198144244
  H   3.34612831762742      2.45400590979833     -2.18542219387527
  H   6.04534332757626      4.23739835287635      0.12252443030728
  H   3.71251130147652      4.49809340222164      0.93788292899757
  H   4.27020701805584      3.04344259571112      1.81208330978501
  H   8.09815323344138      1.82246973229107     -0.15113349328749
  H   7.57621706338185     -0.65804391471425     -0.06925562948216
  H   3.57408476575151     -3.36698341555604      0.14054960632777
