28
Coordinates from ORCA-job 2904optt
  Br  1.09661184118971     -0.06593556746774     -0.59423930772263
  C   2.99434196298661     -0.16799784623098     -0.48170429260657
  C   3.64402757842341     -1.32105530865451      0.04174244318338
  C   2.87722054710051     -2.49194016655064      0.60407077606944
  C   2.85535468511328     -3.66278674645255     -0.38515380814008
  O   4.12208758495742     -4.31045381595315     -0.22063580686120
  C   4.79530744039081     -3.73838143379463      0.90583988529433
  C   3.67557534985688     -3.13786744084426      1.74134527636607
  C   5.76028993365379     -2.64319929044753      0.46367305903097
  C   5.04384283978416     -1.38586284385372      0.00861372536664
  C   5.76607765172708     -0.30708308088370     -0.47217850760556
  C   7.24027775855021     -0.29955953797315     -0.70980407358348
  C   7.94179519784737      0.79135439852172     -0.00795080144048
  N   8.48249723004685      1.64988644541081      0.52916416746635
  N   5.08561016164024      0.80688562087313     -0.98052466109594
  C   3.68668978491720      0.95990249199988     -0.98010857618311
  O   3.22064293621689      2.02291159430804     -1.40075432440748
  H   1.87322112349212     -2.19765379045084      0.89892281021912
  H   2.75128753710750     -3.32803149866200     -1.41712585653309
  H   2.05822669705591     -4.37904834165518     -0.15190115464142
  H   5.33774947531823     -4.54704622378095      1.39995085727898
  H   4.02939931761416     -2.41413132969428      2.47376657459306
  H   3.10055043621906     -3.92210132420719      2.23949339281023
  H   6.36964479314199     -3.05487181352304     -0.34782398084255
  H   6.44184358420459     -2.41962452666683      1.29469237652435
  H   7.47696190797917     -0.17765404835531     -1.77972014099323
  H   7.68783805740228     -1.23591225428069     -0.37903289744807
  H   5.57302658606246      1.68425767926934     -1.08961715409803
