22
Coordinates from ORCA-job 2907optt
  Br  0.85653513082219      0.03374369915017      0.12318397868168
  C   2.76333053189195     -0.00943225105032     -0.01449454739448
  C   3.54603324213391      1.12883937695402     -0.05139447944130
  C   3.03975476984209      2.48119353537293     -0.06366231561673
  C   3.92897487379950      3.55045924943806     -0.04986440102582
  O   3.26946385869580      4.74396638221644     -0.06816257900198
  C   1.94536633113835      4.43983109835560     -0.10665056195162
  C   1.73674567093691      3.10757487538212     -0.10696605698623
  C   5.30757828178226      3.43870507035184     -0.03896053256412
  C   5.82548972479207      2.14626792538121     -0.05629563893185
  C   7.24891526180993      2.02844343381745     -0.05191199836135
  C   8.45044623384923      1.96699765392604     -0.04558219334638
  C   5.00429131136554      0.97326871079099     -0.07458806089206
  C   5.64766964129019     -0.28139988345309     -0.10553131518403
  C   5.08559028976651     -1.56095369470752     -0.11577638223077
  O   5.64619134087255     -2.65078234583338     -0.15384579770092
  S   3.27397017015906     -1.66090384570693     -0.05490939747694
  H   1.27014370419817      5.27778057125848     -0.13076430161005
  H   0.77015310821125      2.64486774814896     -0.14171187909164
  H   5.95148370045646      4.30546035229177     -0.02665415805285
  H   9.51031341643286      1.89681406861087     -0.03841689862973
  H   6.72955940575311     -0.28974173069577     -0.12804048319083
