24
Coordinates from ORCA-job 2913optt
  Br  1.03984729608749      0.23705079572730      0.03123782351827
  C   2.92981142636405      0.03220167301202     -0.07680440717501
  C   3.56744837612924     -1.22157030198235     -0.02582376083637
  C   2.96001656170107     -2.51916682804578      0.01147890437934
  C   3.73495147491449     -3.65681438861323     -0.09163582417640
  O   2.96498822774844     -4.77958502527571     -0.04478252683535
  C   1.68673323514199     -4.35708336987652      0.09523899185006
  C   1.60495915683903     -3.01142991259995      0.13448784045162
  C   5.15615542892343     -3.72043448566879     -0.26840776070161
  N   5.87175482659782     -4.80602690641969     -0.40701091471310
  C   5.73137921958421     -2.40680639460266     -0.28579846314457
  C   5.00195127800735     -1.25046818187000     -0.12475954795546
  N   5.69346563997023      0.00106834314476     -0.03922619003442
  C   6.98940926422966      0.09429471284660      0.38311368837862
  O   7.62500302701246      1.13597710719002      0.40337431245824
  C   5.01138305289398      1.19031137536208     -0.32641899658493
  C   3.65511265686091      1.20996846093900     -0.31173183169479
  H   0.93835797412019     -5.12854536728979      0.16015094404937
  H   0.69834965809457     -2.44657933370679      0.24163652074884
  H   5.25653819031373     -5.61630886007383     -0.36786763195071
  H   6.79766808236105     -2.36818481365181     -0.45383445399392
  H   7.40130244393873     -0.85747088385898      0.72991806681101
  H   5.64034836855757      2.05498839762287     -0.45297359341723
  H   3.13806513360826      2.14361418769125     -0.47956118943149
