26
Coordinates from ORCA-job 2914optt
  Br  1.17746570117320     -0.35391128347722      0.41834993617801
  C   3.11661772598918     -0.16308947123862      0.16686191156212
  C   3.68633214493491      1.10258553283511      0.30483490017896
  C   3.00158785586425      2.38505697068008      0.37913893694129
  C   1.85600340050735      2.81982209203538      0.97752854936285
  O   1.64784083918719      4.15018899731772      0.73872204166124
  C   2.68764018391745      4.57498944098885     -0.01714468307889
  C   3.54536476059503      3.56624166197348     -0.27145939882927
  C   4.80898066913950      3.57183901394805     -1.07746989514164
  N   6.03186571623751      3.38755681353046     -0.28498453488731
  C   5.87167082312685      2.33213280658977      0.74976167163938
  C   7.24155534466936      1.98047947068558      1.26349029323233
  O   7.61077189351857      2.13537605225579      2.40488507507868
  C   5.14656727020193      1.11187140512023      0.24853279781489
  C   5.77067631131025     -0.05080818271112     -0.20980418516088
  C   5.04243949965299     -1.19530227138531     -0.43321152122882
  N   3.69691152067246     -1.28008434152424     -0.14144202940448
  H   1.10348358273387      2.32694330288349      1.56399229434959
  H   2.67208384319442      5.61166709863146     -0.31105219635994
  H   4.90319873755162      4.50534522298926     -1.63525721123508
  H   4.75763633202726      2.75585676134512     -1.80184206648723
  H   6.23386771140664      4.25848152215399      0.19868898369168
  H   5.30647834452470      2.72131063456815      1.60552731235379
  H   7.93710370924273      1.58094739689171      0.50206469130285
  H   6.84227251132558     -0.08164684860044     -0.37271904182486
  H   5.50558356729513     -2.10084979848677     -0.80299263170929
