26
Coordinates from ORCA-job 2920optt
  Br  1.15832016651994      0.19221592571322      0.13424477021945
  C   3.10441886574876      0.04072703290133     -0.04924752941125
  C   3.64578369652566     -1.21890537345327     -0.00293455126999
  C   2.87473548034462     -2.49365068914795      0.02581205295072
  C   2.56909220648902     -3.12183390950673      1.38478212888369
  O   2.30900768382400     -4.50019274583889      1.11751422133912
  C   2.82802313529681     -4.84983166301155     -0.16554186996552
  C   3.64161618599032     -3.64927909138704     -0.62829212427328
  C   5.07833597472518     -3.74792749490997     -0.13706720986795
  O   5.59744430016485     -4.82276086895111      0.08616435563082
  N   5.74372505353491     -2.53135391625680      0.05085131079109
  C   7.07443318001464     -2.62759550459335      0.45923327663457
  O   7.76789968450490     -1.69194488872650      0.78711331069112
  C   5.08058063807768     -1.28716093887893     -0.13720907762480
  C   5.75816857379036     -0.08449179189488     -0.44655330131322
  C   5.05655534847816      1.08551327552714     -0.48988081407333
  N   3.70559624789942      1.20015627662396     -0.22791133496478
  H   1.92689539467060     -2.37414916935456     -0.50331248027548
  H   1.69528328942581     -2.67814538399927      1.86052833114700
  H   3.43077177195089     -3.02581016578531      2.05637797232776
  H   1.99610252969090     -5.03207753639601     -0.85319801043579
  H   3.43563395209106     -5.74894861563938     -0.07740773693729
  H   3.67460519340655     -3.54528548793057     -1.71535567800225
  H   7.43094866391763     -3.65953603001658      0.42868240300601
  H   6.82164591210100     -0.07606980556513     -0.62784211370872
  H   5.56337687081621      2.01333856047818     -0.72755030149772
