26
Coordinates from ORCA-job 2925optt
  Br  1.04259447675789      0.00807094900913     -0.03634078097906
  C   2.94299417373150     -0.08167667047676      0.04659465854437
  C   3.62784763133003     -1.28337951582170      0.00475032194869
  C   2.88991609485294     -2.59529074654845     -0.01769272565282
  C   2.30760513528723     -3.04339142505361      1.32374847326955
  O   2.04297571101951     -4.43254830962049      1.16011266628630
  C   2.98699213163530     -4.96868334897879      0.23975551805332
  C   3.76867774312780     -3.79787225578359     -0.34881138775056
  O   5.00449444330926     -3.71782764663485      0.33868383797036
  C   5.77238561764957     -2.59868546112725     -0.05993647308229
  C   6.32369933471835     -2.80606261102900     -1.41773794884360
  C   6.75819822273099     -2.96687916056308     -2.52386709217523
  C   5.02576154600077     -1.27862056462970      0.02321279257371
  N   5.86152806167467     -0.22718234574297      0.08219871344836
  C   5.45099446435361      1.04571255358251      0.11422556410479
  N   6.17802164609147      2.10438516098347      0.16775184146932
  S   3.68653859928839      1.48929702294665      0.08473893485856
  H   2.07454113200682     -2.55815924679700     -0.74565517123346
  H   1.37545668186348     -2.54358544132938      1.57967855053545
  H   3.04461673332146     -2.87903880370858      2.11714543355623
  H   2.44157063056733     -5.51858752793949     -0.53086087682734
  H   3.67665497068478     -5.64805611940852      0.74731788135372
  H   3.95393305831269     -3.90566545718035     -1.42220903263460
  H   6.61154553870103     -2.54172745118455      0.63551144262384
  H   7.14521771381217     -3.08779365009033     -3.50616564883075
  H   7.15123850717084      1.79924807312677      0.17385050741313
