23
Coordinates from ORCA-job 2926optt
  Br  1.64312201839598      0.84214976151640      1.30963600157431
  C   2.92030705950257      0.13389410495185     -0.27201176531240
  C   3.58682007447460     -1.09538688114049     -0.07074608240102
  C   4.95774173353991     -1.08848417774793     -0.35471853355447
  C   5.70826166785194     -0.02478129140995     -0.69845700136271
  O   7.06147958896679     -0.31556189433256     -0.75994028860850
  C   7.20050021197094     -1.57008415019966     -0.07215927461914
  C   5.84579956082498     -2.27652825152709     -0.21367205855877
  O   5.46715086543291     -3.03869622109653      0.90902861010384
  C   4.10433326610103     -3.44339560237302      0.77947506976117
  C   3.73838602422523     -4.16123073336629      1.99707585468065
  C   3.44765907962824     -4.74702480179063      2.99888677789789
  C   3.04524541037570     -2.31254494851738      0.46871805428758
  O   1.88003233987203     -2.57842290483257      0.67845747870814
  C   5.08870408723405      1.24916426901905     -0.93487608847894
  O   5.60343304527480      2.30068814637898     -1.28234251057589
  N   3.69437965998546      1.16461917173105     -0.74378036807052
  H   7.38627949235751     -1.38637837947445      0.99091471339218
  H   8.03692252018144     -2.10368554488607     -0.51721347218436
  H   5.80964662060754     -2.90931496968048     -1.11433295656133
  H   4.02594391668967     -4.14156139345515     -0.06900639573284
  H   3.17414583108945     -5.25387880010620      3.89180192534735
  H   3.23370592541710      2.05344549233918     -0.88873768973219
