25
Coordinates from ORCA-job 2929optt
  Br  1.03277587367915     -0.37492351627691     -0.17153709771701
  C   2.92203557573456     -0.19058186252394     -0.06910417735650
  C   3.75341257409905     -1.27488197571258      0.17261992346779
  C   3.18893232959723     -2.65953796670543      0.39116651791078
  C   2.83176330408106     -3.33200985317867     -0.92949898821002
  O   3.97902162199141     -3.78397966373015     -1.66384244537106
  C   5.38175759947685     -3.56139847861323      0.36289749932724
  C   6.07885035438643     -2.20838718799226      0.47085427573098
  C   5.12978642164123     -1.08570516182156      0.18011362306706
  N   5.71103160846872      0.15645058952159     -0.00180860011069
  C   4.91588152452183      1.16469985452709     -0.23264776486396
  C   3.50526402266601      1.11073135652669     -0.30389100622716
  C   2.77004614566807      2.27550736185897     -0.56761940656966
  N   2.17886767477780      3.25030404724244     -0.78670078723622
  C   5.19337478550590     -3.92250210947103     -1.10817979109844
  O   6.09723418763205     -4.33965898599613     -1.77975282057380
  N   4.13770777591818     -3.50168063583333      1.12113207357196
  H   2.27375985769707     -2.57967133177962      0.97883572182980
  H   2.29260681694126     -2.65416019740628     -1.58908158631046
  H   2.20901263756726     -4.21262635566308     -0.74107194069807
  H   6.02435021804022     -4.34002105991989      0.77488666808300
  H   6.92317284249209     -2.16987300088319     -0.22129177715976
  H   6.48867172593770     -2.11392654141085      1.48470913243800
  H   5.38596786377646      2.13437139052418     -0.38442725780829
  H   3.74371465770235     -4.43153871528280      1.22024001188451
