23
Coordinates from ORCA-job 2930optt
  Br  1.15292014188690     -0.62477004625456     -0.08340291694181
  C   2.97014113444805     -0.08222928178470     -0.08744459376198
  C   3.49513750927930      1.19310854696545     -0.08890188564594
  C   4.94998206720936      1.24872938581250     -0.09500284054581
  C   5.88862812726742      2.26359819131965     -0.09989447369624
  O   5.78395871240195      3.61771988241239     -0.10077873049323
  C   4.56569661633776      4.23122278023439     -0.09516066215712
  C   3.29961020272001      3.70196864397106     -0.08848714278205
  C   2.68752716312680      2.40962826813766     -0.08450189674697
  N   1.35790073754485      2.29679809307652     -0.07615026550947
  C   4.71721755823208      5.64385627150348     -0.09684505820144
  N   4.83133078289657      6.79418821007624     -0.09644838453160
  C   7.20136893818124      1.71104416756801     -0.10528445684636
  C   7.12224516523380      0.34102227246310     -0.10365821102074
  C   5.73661377777215      0.01777954657530     -0.09740305015909
  C   5.10816166205974     -1.19043402906334     -0.09451501895313
  N   3.75987035267406     -1.21121982456104     -0.08996701366709
  H   2.56280551202694      4.49918762815958     -0.08474925876374
  H   0.95097558492972      3.22913853784363     -0.07389623348104
  H   8.09578950605845      2.31758702368813     -0.10980440061695
  H   7.93812218392645     -0.36511799187049     -0.10689160655399
  H   5.61005315888575     -2.14760959695518     -0.09596679035795
  H   3.27394340490057     -2.09219667931780     -0.08784510856626
