22
Coordinates from ORCA-job 2932optt
  Br  1.19750902507365     -0.72293742383003     -0.74580184396658
  C   3.02711741270650     -0.59195656923824     -0.21773081604168
  C   3.87976050614688     -1.70175081506759     -0.09069988014773
  C   5.31991389298574     -1.40524791061275     -0.03297979435948
  C   6.27806097193281     -2.31566146227238     -0.36921153146928
  O   5.98029077381875     -3.52702683258837     -0.96982792668958
  C   5.38788389520728     -4.42814807438348     -0.12413144254166
  C   4.22770599647346     -4.19316907174157      0.46511791427586
  C   3.33950561699666     -3.02020682699115      0.23711896712846
  O   2.14302645695913     -3.23234232879779      0.42359666401028
  S   7.99111233361061     -2.17329559444751     -0.16686686191140
  C   8.23476097147059     -0.51802166260886      0.53545394824787
  O   9.39242245931048     -0.23137921880427      0.80792259759125
  C   7.08577406288057      0.28024638040651      0.63716025200042
  C   5.75880425195466     -0.06348080645526      0.34966480810028
  C   4.78318176623622      0.94633588288716      0.36052157643204
  C   3.47053830708871      0.70341375395142     -0.00602064247936
  H   5.94560309099144     -5.35215186999618     -0.01466879292155
  H   3.79367000373666     -4.96290083136765      1.08937852121166
  H   7.28403816696716      1.30091234168735      0.94473789740870
  H   5.09403553545447      1.95665031625156      0.59527155833197
  H   2.77128450199746      1.52211862401910     -0.10500517221047
