25
Coordinates from ORCA-job 2934optt
  Br  0.96260419401010     -0.01300757850744     -0.17561386135556
  C   2.84536217644414     -0.08501764855482      0.01845873083366
  C   3.52242589027321     -1.30940356790467     -0.02058774390473
  C   2.97873963007326     -2.70934107427834     -0.01826116425131
  C   3.62146221553954     -3.47743478676287     -1.18043545537579
  O   5.04844226795481     -3.42163763504593     -1.09536356331663
  C   5.52437272255982     -2.66972659458661      0.02890020005522
  C   5.03341164767278     -3.34515969747060      1.30892719398852
  C   3.50674693377035     -3.29008431403344      1.28389946230911
  O   2.82091292840543     -3.64510838847716      2.21559507433302
  C   7.02195140943329     -2.63020582810661     -0.13749747436751
  O   7.80556109584358     -2.54867499421940      0.76857362825878
  C   4.93426108885145     -1.27978236572339      0.00664558242359
  C   5.60633066293424     -0.11096587127968      0.10525670325662
  O   4.93621293646632      1.08848849384111      0.15593139226830
  C   3.53798872172570      1.15708257604458      0.07458202936223
  N   3.01062171756071      2.32537699551986      0.05844281928952
  H   1.89315910932814     -2.75519157881516     -0.05085996880672
  H   3.31182608603910     -3.02911694392484     -2.12731168294964
  H   3.32858334272305     -4.53236394510980     -1.16557083428515
  H   5.41750225597515     -2.82766341110873      2.18961345241753
  H   5.35204372640091     -4.39055391228877      1.35423586567798
  H   7.35084432786651     -2.66236501295279     -1.19290395604299
  H   6.67537222806174      0.00905029255195      0.18734677544088
  H   3.75326068408657      3.01780679119357      0.10699679474107
