27
Coordinates from ORCA-job 2940optt
  Br  0.47947165517023      0.10907431777514     -1.01031429588735
  C   2.83093788711824     -0.22651476987753     -0.08980689678204
  C   3.55371461150514      0.94760518783586      0.03039870357481
  C   2.94161462916966      2.28573188558068      0.39029619947839
  C   2.85694165140166      3.24185714680027     -0.80533484412162
  O   4.04348841913085      3.98326900909334     -1.03518470963373
  C   5.20663489717769      3.21735362863343     -1.24596835992504
  C   5.58428654513706      2.32485839133924     -0.04568571081770
  C   5.13715101349888      3.01334770546282      1.25781201372512
  N   3.68237798037723      2.92893387754846      1.48824957472187
  C   4.94792670554986      0.96640068581828     -0.16199192912505
  N   5.69668755991524     -0.09014766371263     -0.46254025527383
  C   5.00046945251590     -1.21805359412453     -0.58552047344702
  C   3.61892236962630     -1.30656652390755     -0.41830185291638
  O   3.27608955174621     -2.62318707684180     -0.61857418041457
  C   4.44845124310971     -3.22387263588545     -0.89235034550610
  N   5.49895828916667     -2.48700856398086     -0.89132718571373
  H   1.91848109760673      2.10405431549666      0.71865078408404
  H   2.09344727644750      3.99428742341271     -0.61024645994459
  H   2.57111444417530      2.66923926710277     -1.69530477265352
  H   5.99792183832705      3.95090066078741     -1.41453760599444
  H   5.10808540801465      2.59967232763444     -2.14794002359733
  H   6.66802573042628      2.19618527489156     -0.04325149733114
  H   5.43739293692908      4.06411457775220      1.21617177613051
  H   5.66301881289869      2.54991604532637      2.09559119692910
  H   3.51828673123291      2.37285840849461      2.31644132639582
  H   4.40010126262515     -4.28330930845593     -1.09243017595448
