27
Coordinates from ORCA-job 2941optt
  Br  0.84208029086356      0.38769786737887     -0.46295120378741
  C   2.72851391234179      0.21125963108619     -0.46944756130683
  C   3.36272680893131     -0.95912311980087     -0.92174050254408
  C   2.80790230673186     -2.33237012874904     -1.15966780105654
  C   2.32199460264571     -3.00460995209543      0.15207516493391
  O   3.33436681027482     -3.73508722712829      0.82792753895985
  C   4.48061264820926     -2.99126307274980      1.21673255780264
  C   5.59134334581598     -3.06650957613799      0.15965731230439
  C   5.17364988761352     -2.43516585412068     -1.17730251251965
  N   3.95719970603276     -3.03795124353609     -1.75544542845245
  C   4.74158049487318     -1.01091226313463     -0.95511561492677
  N   5.57607275567391     -0.03904705634931     -0.62627234890581
  N   4.89913726044886      1.12804161827802     -0.32131254180264
  C   3.52574559638759      1.34786209741257     -0.15750278104661
  O   3.15194418535356      2.46170660680977      0.21837146449290
  C   4.96043214711388     -3.53767128681521      2.49391286456947
  C   5.38154154487203     -3.97211701603631      3.52867716014754
  H   1.96230611636927     -2.31870280618384     -1.85549911389123
  H   1.55293393255579     -3.74903313389591     -0.06257595807038
  H   1.89265154199033     -2.24212832541472      0.81126373926084
  H   4.20585811876949     -1.94170990711556      1.37848390447294
  H   5.85439844592227     -4.12015342515617      0.02194266838632
  H   6.46994800518375     -2.54052910736807      0.54049727961627
  H   6.00706929510678     -2.51541108405984     -1.88005582677519
  H   3.91470112693945     -4.02457548717079     -1.52559477552722
  H   5.47960579217704      1.88735461977935     -0.00721973968355
  H   5.74568332080217     -4.35385136772618      4.45116205534926
