26
Coordinates from ORCA-job 2943optt
  Br  1.34363728617149      0.41472065802614     -1.28014049706917
  C   3.00531591808543      0.21276294040326     -0.39581355480477
  C   3.74506401119841     -0.98773730370276     -0.49464769188298
  C   3.12694400571950     -2.30896315579134     -0.90730676708579
  C   2.41531557224598     -2.83548667000915      0.35171793868432
  O   1.26529217942443     -2.58130604721549      0.59945320971791
  C   3.24641966784506     -3.72867443009958      1.26484490029836
  C   4.75897260624336     -3.50453577307757      1.20320864374401
  C   5.31343537917323     -3.31752297049782     -0.23932210351254
  N   5.95740969372502     -2.02679823465628     -0.45362389506968
  C   5.11947986668956     -0.91833740470643     -0.16773254601592
  N   5.71523571705710      0.10991218058030      0.36206203277821
  N   4.87773515442230      1.16949427205820      0.67473195978855
  C   3.60593356552301      1.39719115207550      0.12220379014591
  N   3.04727677393525      2.56755087534538      0.14556932838929
  C   4.16820169065158     -3.34336362491017     -1.23604579533154
  O   4.07546162742029     -4.15154213601854     -2.12567407743547
  H   2.39663648616706     -2.20508421092977     -1.70891416038884
  H   3.00823816613456     -4.75086108408982      0.94391583113840
  H   2.86573791491268     -3.62162756172860      2.28016656408497
  H   5.26509799202710     -4.34568872596040      1.68013477710352
  H   5.00978363851799     -2.60605260382185      1.77034812486079
  H   6.01404533856697     -4.10729222878640     -0.50672431599000
  H   6.81811490315761     -1.92896408595716      0.07155388622995
  H   5.40595735970358      2.00863516032719      0.84718107541787
  H   3.67925748528135      3.24657101314320      0.56585334220463
