29
Coordinates from ORCA-job 2946optt
  Br  1.49464056065542      0.54828957125729     -1.48614794554185
  C   3.38257109093733      0.16894848712472     -1.30925621536606
  C   3.78362893119370     -0.78959265198391     -0.42944268591402
  C   3.09180103579076     -1.70610281490490      0.49794193885028
  C   3.33192226732217     -3.15198016901882     -0.11515541544987
  O   4.55361624924201     -3.53519497827097     -0.82603327445362
  C   5.91653333922270     -3.25002728983479     -0.42088505058534
  C   5.67160234688527     -2.17064445137277      0.67341813111402
  C   6.14133766527132     -1.19557922248680      1.79078930007952
  O   4.86478538099612     -0.68396596904911      2.25310067412491
  C   3.54057357278507     -1.23148165572627      1.94698946064990
  C   5.10793606334123     -3.15971174310997      1.64893307609793
  C   4.98865991909125     -4.03069446515969      2.46855298841052
  C   5.13391797391558     -1.07514354278688     -0.28824703914931
  C   6.04752488114553     -0.32309382857151     -1.09247129393582
  C   5.51778745960190      0.62119706580450     -1.93871708093123
  N   4.20125013383604      0.91684885095452     -2.09687492327236
  H   2.00461274217857     -1.59122410517559      0.50239136995663
  H   2.60503332212138     -3.20686529515036     -0.92650905423042
  H   3.09219485320853     -3.91932390817225      0.62139679888222
  H   6.43447974119069     -2.86278528544676     -1.29662110343339
  H   6.37708338489995     -4.17476628149763     -0.06485049466702
  H   6.65446943309244     -1.66801024252259      2.63189806647495
  H   6.70752213679678     -0.34696564608260      1.41071854183681
  H   2.91694208564358     -0.35556162529051      2.13002973607260
  H   3.29511072238094     -1.99522891673334      2.68559019125384
  H   4.81899725667814     -4.79179204337450      3.19012586766207
  H   7.12176020198876     -0.47059165245770     -1.05174764085562
  H   6.19270524858674      1.20804380903920     -2.55691692368027
