25
Coordinates from ORCA-job 2947optt
  Br  0.87636771540187     -0.11093667850485      0.35003337451399
  C   2.77393668865290     -0.19000157933110      0.13587981337386
  C   3.51847071570569     -1.34020171328241      0.34680183473077
  C   2.84496382810386     -2.67997301630790      0.55077646171432
  C   3.08073190467681     -3.69699648438026     -0.58050250973576
  O   4.27994349714575     -4.42478288666842     -0.46651472756696
  C   5.44575719850542     -3.64525148077271     -0.61743186522964
  C   5.67410099559064     -2.58892548114963      0.46442045195096
  C   5.57850101422897     -3.13689194172572      1.88025638678865
  O   4.29897818296790     -3.46219277002946      2.43534736607709
  C   3.08679227211763     -3.39122153106760      1.87760093868915
  O   2.17359160791723     -3.92229520371240      2.45405071455557
  C   4.91271998269070     -1.29338890932737      0.30302420731697
  N   5.72197214268075     -0.20900137657347      0.19334598543246
  C   5.30035298941855      1.02514655550453     -0.00491963043137
  O   5.94956262364778      2.05029623917054     -0.07526018902744
  S   3.47116356190761      1.34654755235153     -0.25975187742614
  H   1.77057363535006     -2.51947239724575      0.56445605547699
  H   3.03899987530832     -3.16550892508944     -1.53954977097399
  H   2.28786725635180     -4.44446789225007     -0.54471827828096
  H   5.44413281240274     -3.15048782028068     -1.59755613527729
  H   6.26791446635372     -4.36412499635925     -0.59177323498361
  H   6.72364352430272     -2.29869444501887      0.36636941832599
  H   6.00548533605167     -2.39699178170080      2.55844141132361
  H   6.15947617251880     -4.06018103624838      1.95917379866278
