30
Coordinates from ORCA-job 2952optt
  Br  0.83219454773925      0.27247080572874     -1.00139294042043
  C   3.08740689798307      0.05343181749868      0.14902772269598
  C   3.68093246948726      1.20878998824481      0.56100397663900
  C   2.97549797789026      2.47014410912316      0.96026105688650
  C   3.63512203627344      3.03400489480767      2.21712194168429
  O   5.06610375328464      3.05500967193498      2.15265681824931
  C   5.64769252250573      2.61155563178153      0.94147464669662
  C   5.51693186814722      3.68614847182541     -0.15435176339005
  N   4.20797389829077      4.30363993747063     -0.23567390612682
  C   2.98291085212777      3.50013765066383     -0.17899651150225
  C   4.11178201566011      5.56627308835091     -0.74687403558538
  N   5.01115483510706      6.35897510020634     -1.18565109138670
  C   5.09061538531594      1.27847423631366      0.51426746144442
  C   5.86033960028995      0.24053951100788      0.08567297238889
  C   5.24543407917820     -0.99091379267403     -0.35248556855688
  N   5.80239679248059     -2.07433931082628     -0.78170473587826
  N   3.84967310737714     -0.96680784472388     -0.28111384300904
  H   1.93263035914531      2.23354442121588      1.17397484421594
  H   3.36295695530943      2.41383094799451      3.07377656972231
  H   3.30021022373209      4.05942801967269      2.40239333569289
  H   6.71454401623822      2.50546934779984      1.14998715988478
  H   5.82598685116623      3.25059373530287     -1.11427016504725
  H   6.22126913217295      4.47941416845248      0.10149479319716
  H   2.80361111686348      2.97192585504134     -1.12077362826115
  H   2.16362330110891      4.20695521521427     -0.03322897312082
  H   3.08330576363183      5.92823442778505     -0.75024895995340
  H   5.93259580001975      5.92841779501618     -1.19466332561168
  H   6.94163008853502      0.30693390688071      0.06206882121666
  H   6.81120559774791     -1.95953383039311     -0.78382677376660
  H   3.39426815519036     -1.80674797671686     -0.61392589899802
