27
Coordinates from ORCA-job 2953optt
  Br  0.72476612883964      0.59055911894084     -0.80880282441483
  C   2.62561957443145      0.42824321978422     -0.27509423887091
  C   3.21635501777170     -0.80521828572090     -0.18552468759007
  C   2.43775959295758     -2.08116828022968     -0.28412259419181
  C   2.94861020205095     -3.18798418333197     -1.21270713114431
  O   3.72955746055087     -4.03783811814086     -0.38449748533912
  C   3.41407893604926     -3.76187930107547      0.97000535823276
  C   4.68748602946827     -3.26374311212814      1.73148681744829
  N   5.81963109474125     -2.87470224332508      0.93177832106627
  C   5.62179221259421     -1.82811268879561     -0.10732109135158
  C   4.62591478449308     -0.75532937184917      0.18579353212892
  N   5.14252899825049      0.43518942474420      0.63746112736395
  C   4.40877222996225      1.49980988378981      0.55115929073205
  N   3.15953645905541      1.60694660932779     -0.00681610846021
  O   2.39654542446286     -2.79662256918482      0.96716168000582
  C   2.87093981883325     -4.98509073109604      1.60379591110256
  C   2.46404656193566     -5.97812527223147      2.13601224198030
  H   1.40665808022107     -1.84736730593082     -0.52845695853685
  H   3.56886542263512     -2.81043194846092     -2.02362395506917
  H   2.10879582765379     -3.75427824743135     -1.62592670778365
  H   5.01610155631637     -4.05379626572475      2.40850014342811
  H   4.35609478484440     -2.41658808254335      2.33412228634679
  H   6.20292579365551     -3.69669166100884      0.48007079118403
  H   5.38290908004963     -2.31072604317401     -1.06244213588594
  H   6.58683561476617     -1.33098225396444     -0.22839497877900
  H   4.82290622044633      2.42868309431742      0.93477474170994
  H   2.08996709296333     -6.85775538555652      2.60060865468766
