27
Coordinates from ORCA-job 2955optt
  Br  1.08416302990459      0.03314086369180     -0.38335974695309
  C   3.01162993492660     -0.01665079890946     -0.20150635737160
  C   3.66081206861145     -1.19107477790634      0.18790056007940
  C   2.94379884382808     -2.45788053735127      0.60424245037632
  C   3.28057689713822     -2.87951205745114      2.04955700439433
  O   4.48614454566602     -3.56980845891446      2.21527615407550
  C   5.66499658442787     -2.82509328314623      1.98884811153193
  C   5.87980412742547     -2.39117493153130      0.52191098190908
  N   5.49211773439967     -3.43823386455951     -0.41537488644351
  C   4.26170743560325     -3.93469576139164     -0.68570801591135
  N   3.09413241688631     -3.56810651648920     -0.32159520215666
  C   7.37827408056630     -2.15871716916016      0.31790280286477
  O   8.00003840926836     -1.43540460006727      1.16513686113528
  C   5.05948335528181     -1.13315655256836      0.20807102594541
  C   5.69087299923034      0.07412359943106     -0.07278104259017
  C   4.91577596073800      1.17102768589446     -0.39993696125839
  N   3.58552439097185      1.12551793543817     -0.48516301604969
  H   1.88013020779484     -2.22535059895527      0.63436630295577
  H   3.25085186883507     -1.98678568582000      2.69211307514658
  H   2.50407210285740     -3.57250394812684      2.37671038383019
  H   6.49225157681183     -3.47937143741452      2.25850927714377
  H   5.69993340660310     -1.93588373437160      2.62909364835295
  H   6.28782249735042     -3.96679645070990     -0.74635898418507
  H   4.30944924061648     -4.78787809303708     -1.36392761825856
  H   7.66353537945337     -2.16170980256197     -0.75384737290068
  H   6.76843807651629      0.13981574874941     -0.01159102345721
  H   5.37066282828683      2.13216322723871     -0.61248841220530
