24
Coordinates from ORCA-job 2956optt
  Br  0.98469158253038      0.07980436146888     -0.19532710500711
  C   2.87067271522743      0.03663801122238     -0.07551768180101
  C   3.58312881835665     -1.15757480719382      0.00501491529525
  C   3.05332661152581     -2.56332733481598     -0.04155631503038
  C   3.66810356038063     -3.22321602867310     -1.28082021851907
  O   5.09024452074904     -3.27416502015992     -1.15490919916485
  C   5.59184362037970     -2.48058668765096     -0.05685589338539
  C   7.05240729371620     -2.48661069431247     -0.15337918879809
  N   8.19283200428099     -2.53782904278568     -0.23346890654294
  C   5.09358881155403     -3.17671461535176      1.22215595720196
  O   5.79607017023414     -3.56207568835975      2.11771002612231
  C   3.57985883826750     -3.32424339001507      1.18245224229764
  C   4.97760604751782     -1.10875133143422     -0.01912334991088
  N   5.72287690141655     -0.01355165004423     -0.04513753856000
  N   4.96450156558033      1.13378517308575      0.07750050366803
  C   3.57950579782855      1.28320327250152     -0.06962450319311
  N   3.01336661464838      2.44146012025064     -0.15146290827553
  H   1.96679936371458     -2.58643187737706     -0.09749131744232
  H   3.40146587161076     -2.65915070101489     -2.17727779145198
  H   3.32585156953572     -4.25690713509999     -1.38807822387243
  H   3.16644311496462     -2.92505455409102      2.10876483846015
  H   3.34731975977182     -4.39391849524026      1.14092574077750
  H   5.50928366398595      1.96861502652338     -0.05594409271238
  H   3.71421118222237      3.17960308856766     -0.12454999015538
