25
Coordinates from ORCA-job 2957optt
  Br  0.78133806466681     -0.40340991688561     -0.27158581645500
  C   2.67454160004306     -0.23724892590692     -0.12665474679112
  C   3.50064942701590     -1.32176006045778     -0.03611044300543
  C   3.06881241188077     -2.76559921834324     -0.00145670101034
  C   3.71124696740303     -3.48585433017938     -1.18592120859657
  O   5.12768017979858     -3.37772662037141     -1.09409344232190
  C   5.51246704737785     -2.59693365033740      0.05680320826370
  C   4.96981436674834     -3.33282524755278      1.28085484973321
  O   3.54504177572240     -3.39226303579540      1.19219918916361
  C   4.90122294762213     -1.22387471844853     -0.00016736524164
  C   5.63399205794951     -0.01299904067155     -0.00093675042910
  C   7.14504070807757     -0.02211749783925      0.00193932847912
  C   7.74155646557506     -0.63608700431279      1.19405927562307
  N   8.21354683765163     -1.14828919458550      2.10687313775227
  C   5.06121597452860      1.26676974012793     -0.05134869887609
  O   5.62492926519368      2.36197405155771     -0.05737695227947
  S   3.23158493674712      1.41422065061468     -0.15564530649117
  H   1.98876381019041     -2.88380404956888     -0.00738393039533
  H   3.36787972168084     -3.04633338943169     -2.12717310540500
  H   3.44119259229373     -4.54643448526113     -1.16117440711047
  H   6.59937841081068     -2.59594147214283      0.06751958524317
  H   5.25793495397708     -2.81042407167978      2.19582247031251
  H   5.35815928843993     -4.35567889134547      1.30462029023330
  H   7.48782543890141      1.01186571007584     -0.05426986736839
  H   7.55018474970380     -0.56022533125881     -0.86239259302697
