26
Coordinates from ORCA-job 2961optt
  Br  1.30580487282452     -0.15254079750876      0.69155338133130
  C   3.23441773370965     -0.22056397093342      0.55695693512173
  C   3.80098127741460     -1.33980527326782     -0.04901296376156
  C   3.03897868965456     -2.59521487380959     -0.40744107788712
  C   2.36771294962214     -3.51716202079731      0.68897210018585
  O   2.84297899685373     -4.88462093796605      0.63286231973677
  C   4.21905706589634     -5.21095345041686      0.38506175764219
  C   4.88117511728029     -3.87839301164656      0.05137437919764
  O   4.01678563449736     -3.42827693248265     -0.96668735718033
  O   6.14564583589957     -3.69410164600875     -0.44177649005800
  C   6.16638026128615     -2.25226962927636     -0.90944162854673
  C   5.27739942433702     -1.27531603413261     -0.17941695776024
  C   5.89946664885634     -0.19367803578288      0.42820845665968
  N   5.32586383815672      0.84117502798044      1.03427986951787
  C   3.94868294525583      0.83535395299603      1.04954834829857
  C   4.89005782822299     -3.21471251418591      1.42569468592040
  N   5.01405396179233     -3.05500124999485      2.55674406879189
  H   2.29471513810354     -2.40390084790244     -1.18504020329074
  H   1.30143878469631     -3.60587956607593      0.48936696849623
  H   2.50098785704246     -3.10526343906943      1.68863857785157
  H   4.26345709509059     -5.86765962261073     -0.48536039209384
  H   4.64397415006625     -5.69453672684396      1.26565028922185
  H   5.93090450427150     -2.32527588045246     -1.97088637650372
  H   7.20517909222264     -1.95827222269669     -0.77860781849668
  H   6.98916997151090     -0.16586192080992      0.40516325652602
  H   3.44973032543560      1.69773162369549      1.47159587107939
