26
Coordinates from ORCA-job 2970optt
  Br  1.12257374308304     -0.05846940412253     -0.94078911618547
  C   2.73583653700979     -0.09707951517613      0.16109326466849
  C   3.46702339425980     -1.30334476980235      0.26393758601072
  C   4.87464052806157     -1.22912435591857      0.30754104979033
  C   5.60592917877241     -0.07606467336093      0.18252990117337
  O   6.99493789571504     -0.29438642189692      0.29441586464358
  C   7.19832859522690     -1.60897527038352      0.52968055833698
  N   8.33385808833597     -2.15449815227450      0.60497453400273
  C   5.86670217843203     -2.31536315472648      0.68177997682913
  C   5.83323324124153     -3.63802567504071     -0.06945343310784
  C   4.57875632557563     -4.44290807119560      0.22727246627357
  C   3.29997776679406     -3.82897455521866     -0.33658456778711
  C   2.73610692369342     -2.57558390242441      0.33835855256110
  O   1.61459087510487     -2.65254935068592      0.81330504800405
  C   5.17397055370508      1.27770123257804      0.12527177722927
  N   5.88307897548312      2.34312665348850      0.04598056920995
  S   3.41776587842676      1.48889556199740      0.33610041851249
  H   9.06520737443584     -1.45909583569582      0.46423634143396
  H   5.74342011881225     -2.53430814811226      1.75017931124217
  H   6.72662096624717     -4.19755012852507      0.21464722314966
  H   5.90448356788116     -3.44210190992557     -1.14389987758307
  H   4.47747935550277     -4.58088537352444      1.30880625130249
  H   4.69297523938908     -5.44155949682832     -0.20322359112245
  H   2.49153958985833     -4.55754819868763     -0.27845902958608
  H   3.46169735770776     -3.59035044813854     -1.39327037598323
  H   6.86826575124419      2.08602336360106     -0.00343070301881
