23
Coordinates from ORCA-job 2971optt
  Br  1.83833779988740      0.51351673352537      1.80035117263771
  C   3.13621558555934      0.14468288752060      0.24514496559997
  C   3.71937371432718     -1.12514508535913      0.24230198876345
  C   3.13614089638762     -2.46935603416317      0.53772663395645
  C   1.76439092152865     -2.72902083130240     -0.05152516816193
  O   1.79051669250087     -2.76011667499488     -1.47830819211925
  C   2.85296609296947     -3.37785060968611     -2.01883073224919
  N   3.91784090023704     -3.75963575701960     -1.46909853906805
  C   4.17944767400445     -3.43163405319491     -0.07626732162956
  C   5.51246168734725     -2.63749969601101      0.01023618693611
  C   6.51110272633747     -3.03642861766892     -0.97947440924165
  N   7.31913230839080     -3.38508125070573     -1.71357313227567
  C   5.06153066886709     -1.18424166358578     -0.04014896183272
  N   5.90065764293978     -0.16980364141505     -0.20585368382690
  C   5.36984919116566      1.06725570624728     -0.14096066332167
  O   5.94062062863228      2.12185202699393     -0.19928880907158
  O   3.93308454447025      1.18263547719757     -0.01702162273853
  H   3.05589041187508     -2.62747512764005      1.62096495637752
  H   1.37861517776364     -3.69303115997908      0.29764855572425
  H   1.06892311073294     -1.93911079120129      0.22361438103664
  H   2.69933906472983     -3.54103792714105     -3.08217073277876
  H   4.26098234806242     -4.36880446649029      0.47730870125897
  H   5.96958021128323     -2.79966944392616      0.99322442602444
