21
Coordinates from ORCA-job 2974optt
  Br  1.20248031776631     -0.25875612439553      0.05010306647626
  C   3.07093434443385      0.00070410581163      0.05338697077292
  C   3.65462304486343      1.22021755148616      0.05448248316283
  C   3.03086562484764      2.53131736917843      0.05403373810152
  C   1.75436336750036      2.99744903760314      0.05368862903243
  O   1.74448810908091      4.37532640807551      0.05332097819835
  C   3.04343796819789      4.85011860040483      0.05337379459959
  N   3.32939405389022      6.09674274753903      0.05294119934623
  C   3.89541716201395      3.68037606209571      0.05405175577371
  N   5.21491719047119      3.68400731687382      0.05493146241359
  N   5.73792201957573      2.42875244184817      0.05626727355373
  C   5.10770298279699      1.24177942678083      0.05646157729820
  C   5.81339837496461      0.02968502028253      0.05841507640869
  Br  7.70210061504408      0.03631487996502      0.06272143593618
  C   5.18557143589869     -1.24337866889278      0.05732606260687
  O   5.71368365811062     -2.35066617764619      0.05865165763204
  N   3.78583131443945     -1.17208521076189      0.05438263630795
  H   0.78977208986727      2.52837645154110      0.05376529961824
  H   2.46584419920028      6.63620546257976      0.05257235189200
  H   6.74537635782742      2.41477378125769      0.05729576157294
  H   3.31187576920910     -2.06026048162696      0.05382678929574
