22
Coordinates from ORCA-job 2975optt
  Br  1.76884874121955      0.29386068057683      3.11331371194930
  C   3.27022221411963      0.36806658763600      1.89303552337125
  C   3.23062958856934      1.26814745770073      0.81799427344402
  C   2.43798449880799      2.47886140063212      0.92145660147997
  C   1.58072674943896      3.11711720568673      0.08436609836298
  O   1.01179870835826      2.70477178511341     -1.08125863670651
  C   1.69878388491881      2.26227486213049     -2.17884621577709
  N   2.90181658743261      2.02197263174344     -2.40254616624962
  C   3.98647914950956      2.13434229965807     -1.42542819350495
  C   3.95583763031619      1.05384548613183     -0.36092374070407
  C   4.68523917302206     -0.10546775543700     -0.64719344371278
  C   4.93111065777647     -1.18621997577788      0.22179325677365
  O   5.56006933148361     -2.20896720016239      0.00204247774651
  S   4.28995788004410     -1.02966091397721      1.93836967541193
  N   1.15844523941503      4.30663324683897      0.62854460730317
  C   1.76022283574868      4.34568614981679      1.76687632710662
  O   2.55291118939657      3.29980942067692      2.01703852296155
  H   0.96245627946888      2.11367134910682     -2.96414031715303
  H   3.99543914868507      3.12590906474159     -0.97027290982637
  H   4.91153156032368      2.02768593244706     -1.98987619465419
  H   5.15237462499449     -0.20048813106117     -1.62052962968214
  H   1.68511432695042      5.10514841577785      2.52718437205982
