23
Coordinates from ORCA-job 2979optt
  Br  1.19413262730830      0.24397960331619     -0.98546170233803
  C   3.02847225323524      0.21837882094009     -0.43172079994875
  C   3.69505680821124     -0.98120113728882     -0.43710231854361
  C   3.10270679830624     -2.32565801393729     -0.72082730672710
  C   2.38816369925580     -2.93303969375932      0.47395470035659
  O   3.29255292104537     -3.20051690598700      1.55136948225811
  C   4.56640348982105     -3.55565261438687      1.27654174552611
  N   5.31225348552497     -4.09652901825976      2.13588040637775
  C   5.13826004323604     -3.24827410423545     -0.11064174432792
  O   4.13343630801713     -3.25239201460067     -1.08512814265967
  O   5.85641720909007     -2.05159077677165     -0.11014446398100
  C   5.06509784111688     -0.91464659801435     -0.01083519627350
  C   5.60503399479076      0.27273582405069      0.39918646604894
  N   4.95421544474336      1.44315661689311      0.42360435997738
  C   3.63434311402988      1.41520890749414     -0.03095353731083
  C   2.94136365150653      2.64878246568768     -0.06753542392553
  N   2.39312015755036      3.66828137327541     -0.08308991900920
  H   2.40627190154889     -2.28723920204721     -1.55836943166965
  H   1.91499539201963     -3.87648542129241      0.18328799519254
  H   1.64005418524149     -2.24767033164363      0.86692645415762
  H   4.80549655621238     -4.20952219715723      3.01395833104644
  H   5.84802070915079     -4.03300519476089     -0.35654350723246
  H   6.64313140903754      0.28289961248525      0.72064355300575
