26
Coordinates from ORCA-job 2981optt
  Br  0.98012309785613      0.25354666037919     -0.79048220774074
  C   3.05431471743521     -0.09393887620042      0.42464623756491
  C   3.74448804158554     -1.21206871076668     -0.03186828008974
  C   3.05141187563604     -2.49305581054687     -0.42176451404893
  C   1.78085722200811     -2.83176934862796      0.36742466950407
  O   1.89237690941764     -4.22909041278657      0.67981672333515
  C   3.17490650789284     -4.62439067623772      0.55252909017173
  N   3.56348645806115     -5.73691289770338      1.02987721196442
  N   3.87628576278639     -3.67196275106531     -0.13824981325959
  C   5.32130002444947     -3.62697256885864     -0.08783497498824
  C   5.82666204964268     -2.35502614576326     -0.75825726109626
  C   5.12080195803984     -1.14242343284730     -0.21594648750247
  N   5.85369340445706     -0.05378716403359      0.05053652128825
  C   5.20134275740827      1.00839173131129      0.49896959067913
  C   3.81853269976351      1.04318937792329      0.69630067541147
  C   3.23988293898976      2.26022677578629      1.19078185673053
  N   2.84043551897268      3.25860748565778      1.59641547396936
  H   2.82189644971981     -2.44312479763697     -1.49278594565065
  H   0.87418095275142     -2.67002680092387     -0.20403803700132
  H   1.72997760650334     -2.25443644900872      1.29193556111999
  H   4.54008270379842     -5.89360786486506      0.80435454261393
  H   5.73825001875020     -4.50563060523958     -0.58992871706940
  H   5.65690306193005     -3.65187811165172      0.95649025345300
  H   5.64152809100096     -2.42259923128492     -1.83575738015530
  H   6.89982672230084     -2.24668276207081     -0.61021136374828
  H   5.79545244884248      1.88942338706158      0.72404657454498
