22
Coordinates from ORCA-job 2984optt
  Br  1.00101120242935     -0.05293915315252     -0.16448588409725
  C   2.87492964282439      0.06775918396891      0.06857296311442
  C   3.54457562350253      1.29870975873755      0.22781751428809
  C   2.97315195458925      2.60337027311426      0.43014694532009
  C   3.53272197610541      3.84059233570541      0.16674010862098
  O   4.70452174824894      4.09518769138525     -0.50961247998179
  C   5.78846731729667      3.29668131465001     -0.37052916502631
  N   6.84921627910738      3.48290730657508     -1.01762629939926
  O   5.69434571091035      2.34176737523690      0.57781488049341
  C   4.95195264768279      1.19902741026965      0.27730050410568
  N   5.68457096961144      0.14014780510708      0.18448354462857
  O   4.98254006502699     -1.05554884659075     -0.01283935745046
  C   3.59843448740024     -1.14312311135119     -0.08425357114958
  N   3.09551957331776     -2.30478584841309     -0.28379904789218
  C   2.64083816938672      4.85711941806904      0.56463675170644
  C   1.53449326625197      4.21871285359146      1.07055165936192
  N   1.75065042832195      2.87334990216012      0.99697994662271
  H   6.72649868303218      4.28423868981413     -1.63141462817870
  H   3.85448111852711     -2.97822928955844     -0.35859427267951
  H   2.79443706937421      5.91883108850124      0.47155753370865
  H   0.61646556672460      4.61620978357622      1.46650405472292
  H   1.09117650032775      2.15301405860366      1.23704829916116
