25
Coordinates from ORCA-job 2989optt
  Br  0.64040269071131      0.54905396263658      0.03924628591836
  C   3.15668200365570      0.31921521959426     -0.35226789491263
  C   3.60235116547390     -0.96022196973462     -0.43464235955781
  C   2.67244651273143     -2.07997107338585     -0.89275999182028
  C   1.79265105495299     -2.87795051806023      0.17009110690593
  O   2.61610290163132     -4.05701639355598      0.52026878946186
  C   3.82593784247330     -3.45522032367997      0.14909844041960
  O   3.60060951924558     -3.10128082286552     -1.19158205356299
  C   5.32450307091130     -3.65862069734907      0.16712179269636
  O   5.78303007074708     -2.32887607072612     -0.08007047455811
  C   5.02316759525720     -1.13868521355629     -0.10435436747916
  N   5.79208766395685     -0.14861705303216      0.21557708141738
  C   5.32529628928456      1.14451549658203      0.26349963235893
  N   6.02377880181174      2.18126699239971      0.54445747839870
  N   3.96361758100204      1.31916924253936     -0.00340217689917
  C   5.82323567758762     -4.63545413934351     -0.87078047511919
  O   6.57953794755848     -4.39778122052946     -1.76279556604037
  H   2.08226297804401     -1.78679364445982     -1.75629856958228
  H   0.86688656745333     -3.24054853974155     -0.26684983401380
  H   1.59762195321096     -2.28540257476593      1.06223679888392
  H   3.82447528517899     -2.59037236788040      0.81377281323904
  H   5.69006151792464     -3.98683242054087      1.14747256791220
  H   6.97812817872436      1.88025633829260      0.71634994677044
  H   3.60792114735905      2.26170708688174      0.07119290786593
  H   5.41220398311212     -5.65553929571889     -0.71658187870285
