23
Coordinates from ORCA-job 2990optt
  Br  1.20333644896712     -0.17575858324257      0.85447785040362
  C   3.01342205647632     -0.11305067162673      0.26605347777004
  C   3.69843088171576     -1.28104373365426     -0.01053502325278
  C   3.13190992950620     -2.62213903667721     -0.12508241973878
  C   3.68356424072698     -3.87899445642587     -0.05333427694981
  O   4.94862423594807     -4.28420970682888      0.21907086710263
  C   5.84748349367152     -3.25480606615021      0.55610823642942
  O   5.90133222756360     -2.27219041190936     -0.42415145079871
  C   5.10878739996678     -1.15652775200689     -0.17483800276771
  C   5.71126543251161      0.07988068114678     -0.01847410920153
  N   5.05765108298880      1.19736201334837      0.18218641761986
  C   3.67623921709557      1.15834323494886      0.27269713571578
  C   3.05418584604599      2.44445948188265      0.35158247578009
  O   1.84992364986380      2.73987176217002      0.33726061677329
  C   2.65916628720535     -4.82080501146075     -0.35536886272955
  C   1.55620004820030     -4.07980653200887     -0.60499529798755
  O   1.82091706146424     -2.77244651868070     -0.47831276908565
  H   6.82010218055601     -3.74018308102179      0.62267638293413
  H   5.55332096537441     -2.81135549142311      1.51430347479869
  H   6.79707301453292      0.13190291585720     -0.07778600697566
  H   3.81899977527774      3.24171225093452      0.40922966228467
  H   2.75992360473878     -5.89214095319884     -0.37926090559887
  H   0.54514091960203     -4.33507433397232     -0.87050747252563
