25
Coordinates from ORCA-job 3006optt
  Br  1.15970400511011      0.42787133585332     -0.19815244369041
  C   3.03925856723169      0.18940986299327     -0.01994720382222
  C   3.59968725860219     -1.13116203769889     -0.01320783304144
  C   2.74234444093287     -2.34695550266993      0.17846655698895
  C   2.16642617615031     -2.44048422094972      1.58001916007676
  O   1.31825043145807     -3.59635714371509      1.67678080793272
  C   1.78087218050353     -4.76504280489536      1.23799770927670
  O   1.19174763204309     -5.78540071045636      1.44360984216425
  O   2.95173009724420     -4.77092533524812      0.58161008326742
  C   3.53953462830959     -3.61560779118294     -0.05243972572139
  C   4.95251718282865     -3.48643205159510      0.49215334239353
  O   5.63494040088713     -2.46043181066732     -0.17485285568816
  C   4.99722499510483     -1.22827143784729     -0.09587004434341
  C   5.79449135237349     -0.12106895595509     -0.13572918227454
  N   5.19538188123249      1.13766050465751     -0.08605424707309
  C   3.81161989336254      1.37068457345929     -0.10512281353585
  O   3.41885659126753      2.54177284476568     -0.18414171282813
  H   1.88648051958297     -2.32567672732524     -0.50561715197143
  H   1.53543277657245     -1.58729572368089      1.80914882571292
  H   2.95840313157002     -2.51758026403861      2.32897679149177
  H   3.59514308965851     -3.84667487336716     -1.11750545975475
  H   5.50267112257431     -4.41143377767463      0.31949701526371
  H   4.91867401980317     -3.29393269380884      1.57232377147703
  H   6.86786417592285     -0.17823808930845     -0.21598704246109
  H   5.74574344967333      1.97257283035599     -0.18695618983985
