25
Coordinates from ORCA-job 3011optt
  Br  0.76399552205881     -0.40211016326567     -0.67694834639281
  C   3.10324000377037      0.04451717592078      0.21363236236690
  C   3.79328650817528      1.22213930413562      0.08995493447786
  C   3.17160748730710      2.53107619134791     -0.02428774488080
  C   1.92974726718345      3.00688963816454     -0.28381392857062
  O   1.94466278361160      4.35413913953959     -0.27508955694488
  N   3.21927129836370      4.79796874125292     -0.01271705189880
  C   3.93261058850755      3.72157238066863      0.14066242049004
  C   5.38537291288155      3.67225008730883      0.47903564000336
  C   6.02435796515585      2.42010414605757     -0.16147722747804
  C   6.11848961198153      2.63461457982783     -1.65908516590331
  O   7.13868308931445      2.91562094282199     -2.22808765705104
  C   5.22267622468899      1.15230474264471      0.08710908760781
  C   5.86875177417611     -0.04068892647248      0.20981410371220
  C   5.14467804716854     -1.28261097061825      0.35313259129186
  N   5.60284813744966     -2.47880615129589      0.49768927418392
  N   3.75907916022702     -1.11493689621244      0.32075779251281
  H   0.98851700931403      2.52134681418061     -0.48361799639344
  H   5.49296303027079      3.59158030461573      1.56379723712226
  H   5.90009205286134      4.57832082541396      0.15770123545753
  H   7.04460607514897      2.30329295904581      0.20453457727334
  H   5.16695471963764      2.52670865336881     -2.21372349972507
  H   6.95063685127512     -0.09075330326639      0.18974944330392
  H   6.61805049668230     -2.45768974719528      0.50007666665136
  H   3.21482138278802     -1.96785046798954      0.37420080878366
