19
Coordinates from ORCA-job 3012optt
  Br  1.23853865846533      0.21031796953278     -0.46038660594812
  C   3.12506799713009     -0.01479197680376     -0.21083421734869
  C   3.66778449790106     -1.30944077161332     -0.02445945250495
  C   5.08264303622185     -1.30719982250297      0.15119470905333
  C   6.04410852421223     -2.27187118425694      0.20278154327792
  O   7.26990085609077     -1.70275853866950      0.27610713135097
  N   7.13543002964086     -0.31519643277328      0.24463090860103
  C   5.83436738364471     -0.09067546916044      0.15610077418362
  C   5.12534385271478      1.12164063351415      0.00560249860102
  N   3.79726528326951      1.10689219086942     -0.18418203346855
  C   5.85169512479680     -3.68731512694227      0.05609488804806
  C   4.63445985414766     -4.22910340277643      0.28864252706123
  O   3.62985920441669     -3.54284734419936      0.86916914447081
  C   2.92489969529338     -2.53566873194367      0.08154178840618
  O   1.83254256608531     -2.83334938788937     -0.29771719316757
  C   6.89463940058621     -4.54023475460309     -0.42607040655452
  N   7.71347943617728     -5.25060520455577     -0.80596996973978
  H   5.62175230445361      2.08236215189072      0.01127236590510
  H   4.43422229475177     -5.27415479711687      0.07548159977292
