21
Coordinates from ORCA-job 3021optt
  Br  1.46065269656138     -1.59511767303885      1.26943020560879
  C   3.07316070025561     -0.82736184010608      0.62963008250583
  C   3.15235362258447      0.50054331438738      0.25903042206963
  C   2.17412419977253      1.59512995140162      0.28929636583326
  C   1.00286356097461      1.71958152723996      0.93610986232581
  O   0.37843364371877      2.91338441181195      1.07074027984503
  N   -0.11033656640546      3.46579207217323     -0.18018788956429
  C   0.83471690033473      3.99447623922619     -0.87005485050173
  C   2.25440939858670      3.89070175267541     -0.76946704358160
  C   2.86069041815069      2.73475155211114     -0.34271169514874
  N   4.16130701731221      2.42308139635805     -0.58247582957207
  C   4.32445903371615      1.13668618200064     -0.24638983840814
  C   5.62482800429441      0.50303962295045     -0.41657789206061
  N   6.68067080264089      1.08024701508993     -0.83495348763893
  S   5.76063800918475     -1.21276817287947     -0.02345134334104
  C   4.15293845431901     -1.77112442652623      0.55225378676549
  O   4.09641831568315     -2.95098006058519      0.84652139705551
  H   0.53639778468279      0.91180789428112      1.48331679050241
  H   0.43498297425444      4.53561986947208     -1.72733164924740
  H   2.85786462923013      4.59374907554428     -1.32781126160461
  H   6.44342640014799      2.05576029641237     -1.02791641184259
