19
Coordinates from ORCA-job 3026optt
  Br  1.25665380680518     -0.40087175427620      0.10197847863397
  C   3.10391493476710     -0.03380905187133     -0.03395592683947
  C   3.65820151875959      1.23841695933686     -0.00940576413827
  C   3.07537033972407      2.51026992241902      0.06118762137544
  C   3.77452704561848      3.72398403773243      0.20491439544945
  S   5.46169741321056      3.84724476422013      0.57819434114262
  C   5.95689118834241      2.21217411514003      0.26070595493297
  C   5.13847966062932      1.19496202786185     -0.03357063584630
  O   5.72398354926639      0.05131282275750     -0.46329154339594
  N   5.07148718529040     -1.22830690860625     -0.14843959180181
  N   3.85652673184611     -1.16108491488141      0.01116765343828
  C   2.98649052335741      4.89402298904618      0.07784415226636
  C   1.67043050237461      4.66365188679852     -0.16343528541581
  S   1.34444832856110      2.94778144414850     -0.16505015764420
  O   0.86189546489359      2.50112387403537     -1.45160660614423
  O   0.52753494629674      2.62578975542495      0.98359322462890
  H   7.02550326473513      2.05114780885993      0.23963854755903
  H   3.41880056442184      5.88170302812593      0.17476051467678
  H   0.85616303109991      5.36048719372798     -0.26722937287780
