23
Coordinates from ORCA-job 3028optt
  Br  1.37693160384986      0.27282425792006     -1.15391917458376
  C   2.89215605933982     -0.03722500170687      0.15487108174999
  C   3.63647949713224     -1.23036765371980      0.09433484849529
  C   3.01209880949660     -2.51767419093498      0.10983555543900
  C   3.77927402707980     -3.66887653359112      0.02460638015163
  S   2.80356511027831     -5.09168112711840      0.08134178218516
  C   1.37023671026959     -4.15482411301194      0.23952148752730
  C   1.61553304910981     -2.82339511220113      0.24411604297464
  C   5.22749794745592     -3.68815200345040     -0.06033986379924
  N   5.98131965700085     -4.74457076054734     -0.16080247487631
  C   5.80801157329318     -2.37038148122382     -0.00715185593839
  C   5.07035743442059     -1.21549490792247      0.06374081503243
  C   5.68059961767912      0.11889449944884      0.10847746410763
  C   7.12497748999769      0.36951198485016      0.10008166427799
  O   7.63965243299674      1.46927176781887      0.12106051827969
  C   4.88623210568157      1.20267507195382      0.19458993608332
  O   3.56047335871192      1.17221951208946      0.23328822895299
  H   0.41381614393468     -4.64509314152847      0.32921856456761
  H   0.84597168532587     -2.07414715818436      0.34902087095778
  H   5.41223369253585     -5.58895642441765     -0.18851931460764
  H   6.88822358897313     -2.34968098723509     -0.04447766022387
  H   7.76627433623125     -0.52577856233128      0.07674524187403
  H   5.28808406920551      2.20490206504393      0.26135986137272
