21
Coordinates from ORCA-job 3029optt
  Br  1.09182113765181     -0.37406303328216     -0.77550428296119
  C   2.92970594540878     -0.09190525388847     -0.32848009277015
  C   3.43559027278841      1.21084015656283     -0.05420152428797
  C   2.78639164352207      2.47056586064414      0.02805590782475
  C   3.58008814815217      3.62663829418190      0.10088353003650
  S   2.67083233877565      5.07112039832273      0.34730291463502
  C   1.20003485672403      4.15846820598202      0.33535074131219
  C   1.39837360292330      2.83151986212202      0.15848168278323
  C   5.04341447059414      3.52147237204590     -0.06869395073490
  O   5.53102056185355      2.32846792913604      0.54271964187487
  C   4.85213358040311      1.17543924144546      0.19219310771395
  C   5.57194438070572      0.01368403450119      0.16553008868321
  N   5.03952587615782     -1.20620757492560     -0.06278402649200
  C   3.72474467670958     -1.21474752094029     -0.31001513593913
  C   5.45545110577097      3.53804516932379     -1.50171883847793
  N   5.76850460766355      3.61839040820601     -2.60351709738523
  H   0.25859634178301      4.66365886885743      0.47952868914989
  H   0.58404823370379      2.12551904515476      0.15207724244725
  H   5.57273267183650      4.34616599949309      0.41182054981313
  H   6.63821080677143      0.06538019834035      0.35855896845601
  H   3.27183474010053     -2.17945266128318     -0.51358811568152
