22
Coordinates from ORCA-job 3034optt
  Br  1.85048892719703     -0.05167662224392     -1.37575410322863
  C   3.36347631285398      0.58600747685135     -0.39576048437090
  C   3.29553747347014      1.25584742131398      0.77421093544934
  C   2.36002639304569      2.40573922324194      0.81683605023384
  C   1.03424012615110      2.54940618676882      0.53801679108880
  S   0.75299539913115      4.08019065620086     -0.21215364763483
  C   2.43879755416138      4.45832658667306     -0.03436007585254
  C   3.22235325789485      5.50538168140482     -0.78396035793837
  O   3.99064851569232      4.89564751215004     -1.82661510508961
  C   4.98512341838548      4.02985615153977     -1.40166079040175
  N   4.81316094926736      2.71082771979022     -1.70874694085006
  C   5.11478399848768      1.85028452195330     -0.80570076751799
  O   4.50257350406101      0.50530676690054     -1.07332732871305
  N   5.60359453692625      1.94917517178311      0.41681239140214
  C   4.68415964983053      1.53557274743796      1.34290931273816
  N   4.83332577277679      1.44276331926121      2.61215379093150
  N   3.09318622734389      3.55622024073906      0.59748479830923
  H   0.25331382570576      1.81229316179373      0.60790204497256
  H   3.88930602586173      6.01524506302124     -0.08192567484152
  H   2.57578920645034      6.23467855594445     -1.26968114572117
  H   5.50563490128214      4.32840970770802     -0.49630655946560
  H   5.80048402402335      1.68649674976638      2.82962686650046
