21
Coordinates from ORCA-job 3037optt
  Br  1.34072813314962     -0.18925788674148     -1.42458851818831
  C   3.03575211723415      0.03327453440672     -0.59804982536775
  C   3.52779237073274      1.21472846797471     -0.16682703325520
  C   2.83277551528883      2.49573900520899     -0.03206381380044
  C   1.52059557472173      2.54406892659854      0.35850676195246
  S   0.91129767718772      4.14163361067370      0.52685308521383
  C   2.46784166374275      4.86425169709576      0.05181945376852
  N   2.68302781402704      6.12681135602473     -0.04340772098253
  C   3.44768008158828      3.79600773753916     -0.19105623146377
  N   4.66580088967689      4.17405801983191     -0.54832731708628
  C   5.78235952496294      3.42957711452422     -0.51199294559086
  O   6.85023307855062      3.80472590664727     -1.00359344051235
  C   5.86422735235371      2.09820775694029      0.17366195598600
  C   4.93147187032617      1.15709965945432      0.26068872418343
  O   5.33283433986254     -0.08772127060331      0.77679731404673
  C   4.76407782594886     -1.16290289218590      0.22275186378692
  N   3.71774027037628     -1.17541416573685     -0.49128849351765
  H   0.89009747306176      1.70229953334713      0.58705847544797
  H   1.84470039295991      6.65788482973712      0.18410313818198
  H   6.86571746314219      1.82971394456092      0.48659871587109
  H   5.29024857110521     -2.07678588529796      0.47335585132621
