23
Coordinates from ORCA-job 3040optt
  Br  2.44087665317436      0.69882205604038     -2.99742151122995
  C   3.23577280304052      0.36447876225749     -1.29600243632262
  C   3.06108296078884      1.17233764905700     -0.20347574498813
  C   2.53570294946645      2.54372059208513     -0.23684912328344
  C   1.95232549001404      3.26057219579342      0.78910637663285
  S   1.45128091835877      4.85971562239865      0.19672980287793
  C   2.11815684082051      4.56530381162617     -1.40710430687255
  N   2.14378003661458      5.32926913138663     -2.43134353791436
  N   2.64757986955251      3.31030595565861     -1.39716547047118
  N   1.70877953609541      3.07521343364830      2.09182184711723
  C   2.30720804355438      2.10336897164355      2.77649207094992
  C   3.15880300208598      1.10055036314279      2.35755429763915
  C   3.51168521471396      0.63724789903034      1.06752975992412
  C   4.26502181181703     -0.55594964014916      1.01411567494147
  N   4.54100705567031     -1.27102358321925     -0.03677606184314
  C   3.99772447837801     -0.89215394605032     -1.25605549536818
  N   4.16201567128167     -1.60349161342524     -2.31751179603319
  H   1.70497802051256      6.22112835677902     -2.23271993711510
  H   2.99413386901693      2.93214006605025     -2.26472391567941
  H   2.09821615291811      2.13033973528094      3.84313551604919
  H   3.55370231869154      0.48939092117164      3.16371699361066
  H   4.65428446272957     -0.93077053941705      1.96051438730771
  H   4.72988184070393     -2.40551620078930     -2.04856738992898
