23
Coordinates from ORCA-job 3048optt
  Br  1.19876075980499     -0.35531747976176      0.31455025110467
  C   3.02892595143671      0.03661545354296      0.29081269457664
  C   3.54589394649321      1.26605085218310      0.21427315479481
  C   3.08599012761073      2.63387467492541     -0.01052018343471
  C   4.20730144089014      3.43357846130320     -0.31417015783150
  S   3.62818336158967      5.05564489903819     -0.34983581293311
  N   1.94980591140087      4.52647082651365     -0.10059394163429
  N   1.91246479297421      3.22096752257227      0.10227809099555
  C   5.48309711118145      2.74874649938500      0.06297655420905
  C   6.69176430981679      2.68876922623114     -0.86775530501813
  O   7.63796215429173      1.76281383092262     -0.33214461660977
  C   7.22128949151754      0.41519950774194     -0.30006762217207
  C   5.76911380391657      0.24873635904827      0.04802723997357
  C   4.98959688903797      1.32926824483480      0.17067622296438
  C   5.15388140663780     -1.06510115196560      0.10291952376263
  N   5.70203871570332     -2.20809046299935     -0.00323784789435
  O   3.79298014417935     -1.08324763942840      0.32466910312252
  H   5.86665708679411      3.08687171435527      1.04337849559083
  H   7.21458432204873      3.64232422749566     -0.93039771930869
  H   6.37301111401832      2.38523870548280     -1.87251350465492
  H   7.86985433944466     -0.08490786538241      0.42498199683830
  H   7.39720425007986     -0.05929896084180     -1.27915139761617
  H   6.70363856913119     -2.09520744519698     -0.12715521882522
