24
Coordinates from ORCA-job 3054optt
  Br  1.07018983779935     -0.32826417499821      0.35998283611770
  C   2.96305322207181     -0.07866239340173      0.23390982974120
  C   3.78900476341511     -1.22377220196228      0.22728138951885
  C   3.35547106159636     -2.64111634544273      0.16650799472068
  N   3.74204128530594     -3.40008938598818     -1.04815107185689
  C   4.58186218566863     -3.47879632384540      0.14139162393632
  C   5.79129532098427     -2.56625090485044      0.23372985871862
  C   5.19891315413070     -1.17325856224800      0.16122698514971
  C   5.92094730601638     -0.03052080923854      0.05957042481159
  O   7.30610775153475     -0.07492298555420      0.11306178899587
  C   7.93277207149961      0.56754399958540     -0.95099325744507
  C   9.40915563573075      0.30932429237934     -0.97849895729792
  O   10.02993361135352     -0.38378358013131     -0.22544328779761
  S   5.19588912290337      1.56993384290277      0.06058679319657
  C   3.35772952997634      1.25879698832173      0.17803439395525
  O   2.70630811101136      2.29419326693638      0.19495364245191
  H   2.42520047309319     -2.95667839087178      0.61668147968248
  H   4.14688936978594     -2.74587016914568     -1.71388991413558
  H   4.62817362025134     -4.45831273430241      0.60075883968829
  H   6.52186371961131     -2.75416475604516     -0.55803468482146
  H   6.31106788827636     -2.71487702776539      1.18403352358770
  H   7.79040749074881      1.65876141950304     -0.92066246270136
  H   7.52498188933801      0.23722079495666     -1.92018309501504
  H   9.91974157789665      0.84056614120614     -1.81085467320179
