26
Coordinates from ORCA-job 3055optt
  Br  1.08880352361982     -0.09375865375920      0.30109086233424
  C   2.99815969024423      0.00242967129634      0.10540718479980
  C   3.71132294370894     -1.21164350692968     -0.08393677909392
  C   2.93946982454438     -2.45625723711183     -0.32624133499331
  N   2.31207745689105     -3.18685153863419      0.79119061410459
  C   3.40062165976924     -3.80890724008049      0.04293351981408
  C   4.69849456283469     -3.98749395854414      0.79173868257694
  C   5.89817704756412     -3.55805822783880     -0.00698866040577
  C   6.03043345292369     -2.31820732484504     -0.48304554013204
  C   7.27904352747313     -1.76946347435308     -1.13553987954579
  C   7.31168979268947     -0.30003096219490     -0.67556772780767
  C   5.86497120723841     -0.02982962240337     -0.37853973508488
  S   5.28316962912820      1.56691723450649     -0.06661069487682
  C   3.47477933179132      1.31826257196316      0.19226820286051
  O   2.86639694615865      2.36031510944418      0.40503946897643
  C   5.10639685895585     -1.17758124706057     -0.30456001654167
  H   2.31812891224557     -2.41451847688612     -1.21968571528971
  H   1.40427641567718     -3.53213955445844      0.49975645184740
  H   3.14987631160296     -4.60581441510125     -0.65127098837938
  H   4.80022687566991     -5.02481865905102      1.12003308219703
  H   4.62576210596495     -3.36946305692937      1.69167859885164
  H   6.71544758753507     -4.26004453750296     -0.14289277640958
  H   7.16794652218288     -1.80182689576737     -2.22319536949092
  H   8.17215582890474     -2.33474025730884     -0.86593544093211
  H   7.71723557521503      0.37574090722219     -1.43407493174383
  H   7.93593640946644     -0.18521664767168      0.22094892236472
