25
Coordinates from ORCA-job 3057optt
  Br  0.91227404304829      0.15145061986031     -0.24324787577096
  C   2.80278120171868      0.12565692292318     -0.07131964469354
  C   3.52778554745436     -1.03748983751024     -0.27018922858724
  C   2.84290520600287     -2.34984400835014     -0.45164246266848
  N   2.05408009898673     -2.87999705108781      0.67047442705711
  C   3.30910760363803     -3.53324890090969      0.30722525695377
  C   4.44660597957335     -3.35498171098481      1.28299714399992
  C   5.75883470580560     -3.07654165469941      0.55236264732257
  O   5.57209509179183     -2.21234788561176     -0.55586750905126
  C   4.92226953400350     -1.02401224442877     -0.26327205438429
  C   5.74529959178721      0.09345217823549      0.03002503531742
  C   7.14535064681621     -0.06352865759679      0.09364790686987
  C   8.35078259730600     -0.14132545318824      0.17745316277037
  C   5.23722318540559      1.41676152270333      0.28240552879298
  N   5.87949701468045      2.48848068805218      0.57531392505575
  S   3.47730245066582      1.71824053860966      0.13640231132169
  H   2.43413191403457     -2.54004562748878     -1.44021659737767
  H   1.25299742481731     -3.38915666036594      0.31413494647586
  H   3.25546056179064     -4.48986182546151     -0.20415311177632
  H   4.56292728640279     -4.23437070353727      1.92270486999884
  H   4.19295397154741     -2.51298224812988      1.92734388636912
  H   6.17249426018070     -3.99423121462831      0.12792464313193
  H   6.49784774297511     -2.65041095844720      1.24018652417228
  H   9.40821857661100     -0.22125456687470      0.22901870923570
  H   6.87677376295584      2.27858873891714      0.61228755946457
