25
Coordinates from ORCA-job 3059optt
  Br  1.10085625142587      0.28702027009638     -0.03410765935943
  C   3.00346598890365      0.13148285664715     -0.05907575033726
  C   3.61369548959253     -1.08323083129382     -0.26473298345723
  C   2.77516467397640     -2.30843894646897     -0.45028551904402
  N   2.00056695937690     -2.81138531660810      0.68713219019097
  C   3.12773190512412     -3.59501590385596      0.20171665922034
  C   4.31138372820110     -3.65293758752544      1.13483444732949
  N   5.55659718908904     -3.54374224492837      0.39284482828782
  C   5.61097732833218     -2.54629174478693     -0.68842238328606
  C   5.01636009190386     -1.20470718611881     -0.33926292515418
  C   5.91297173760515     -0.12615748828878     -0.16385929025914
  C   5.59730049063435      1.21647649264501      0.06426327383938
  O   6.34074582411258      2.18114851604525      0.20826848922050
  S   3.80426579606710      1.66358186985830      0.14998003206548
  C   6.61857942955616     -4.29763719967182      0.71822226184772
  O   6.65988318501273     -5.15526032690387      1.58339577449847
  H   2.28391133339261     -2.39138866447088     -1.41681441893705
  H   1.11523510168459     -3.18841604859260      0.36937140811934
  H   2.92307694980643     -4.50146599629739     -0.35969402918034
  H   4.34199735633143     -4.58511927439102      1.69686763492603
  H   4.22571613740436     -2.82220464568050      1.83856872301400
  H   5.10599401175667     -2.97164908501624     -1.56204644890532
  H   6.66048103030561     -2.41807745647290     -0.95159483815143
  H   6.97908159809847     -0.32008801970985     -0.22388137184365
  H   7.49996041230603     -4.06349603820983      0.09731189535558
