27
Coordinates from ORCA-job 3062optt
  Br  1.25948507720400     -0.50124008804990      1.83363122299594
  C   2.76969075769389     -0.22622997855973      0.06977968637136
  C   3.53397268003859     -1.34285003996837     -0.14401921821925
  C   3.12278762838798     -2.77204708825448     -0.12848145962707
  N   4.42991315126087     -3.46919439872703     -0.15221100097621
  C   5.56139367029130     -2.56821329733969     -0.31503667772301
  C   4.92903886997097     -1.20754084825114     -0.20767592470935
  C   5.54563662978595     -0.00007026825101     -0.11701351819789
  C   4.73320078327730      1.18046471006553      0.03038853581463
  N   5.08677625262842      2.40484267549837      0.09894485951111
  O   3.36074625158054      0.96769199380533      0.10513648632475
  C   4.50016297992120     -4.80123332888574     -0.37291974220636
  N   5.54189756822150     -5.52426370000381     -0.56365413120308
  C   3.12606683501368     -5.43329458507976     -0.39376178563570
  N   2.21450729031514     -4.68418636905307     -1.25211683166701
  C   2.30405885047836     -3.29938806727731     -1.29787294063543
  N   1.79887803143153     -2.53987762281472     -2.17728767956989
  H   2.57204102794153     -3.00690285910198      0.79253747255278
  H   6.04460986203120     -2.72408074954591     -1.28817154295201
  H   6.31230767185846     -2.72803468285619      0.46530901984296
  H   6.62058266122992      0.11656343497276     -0.13476112832482
  H   6.09861868276501      2.45465747596586      0.02183634021981
  H   6.39137005721534     -4.96476532144974     -0.50956206540319
  H   3.21933660455283     -6.45224350892698     -0.75685608283009
  H   2.73666378034750     -5.46613376689230      0.62865508627392
  H   1.97584685864830     -5.12553193924923     -2.12555439399364
  H   1.28440948590854     -3.07889778176966     -2.87526258603323
