22
Coordinates from ORCA-job 3070optt
  Br  1.12375113286538      0.84953040051122     -0.55147744774632
  C   2.90033389177543      0.63020057799621      0.11330227314092
  C   3.95460939565308      1.31842323189460     -0.49803931458644
  C   3.93761078112368      2.35449609097324     -1.60842231565440
  N   5.33129733686717      2.21002000927478     -2.10926614425556
  C   5.99489216690795      2.43737670995636     -0.80042775735817
  C   5.32648615633054      3.75021193663419     -0.41750894495471
  C   4.06734558789902      3.69470847021160     -0.87701002585613
  N   3.29971537567298      4.42889853087219      0.00771796816584
  C   4.12616199070705      4.98403441482499      0.97591032772190
  N   3.91055219475687      5.81401572857954      1.90674492261564
  O   5.38327810376291      4.49846882502123      0.73544037774322
  C   5.25908160583948      1.35404545908879      0.02181784692272
  N   5.78982497758075      0.72350264796972      1.02242994093604
  S   4.79079531970807     -0.37130956041551      1.83477968942184
  C   3.07055980059347     -0.22915749031581      1.21143396572641
  O   2.24843722183820     -0.90494391535798      1.81634131358208
  H   3.17116579087415      2.24577018970145     -2.36878710896965
  H   5.53880399004108      3.00084707117085     -2.71623258960002
  H   7.07720529387104      2.36860503516609     -0.81053021477336
  H   2.31457184101676      4.61130711910778     -0.04597503997879
  H   2.93052004431486      6.07194851713440      1.94075827775694
