19
Coordinates from ORCA-job 3074optt
  Br  10.57451376079931     -5.19561200055067     -0.57088001985612
  C   9.10468341807905     -4.13296019634955     -0.05607980168323
  C   7.84481856225221     -4.56610665456070     -0.08860991660248
  C   7.13202682403029     -5.80472525581187     -0.42785436705289
  N   7.14086269990192     -7.10751747830763     -0.73436612537664
  C   5.81750258273553     -7.49517611658776     -0.65163587325814
  C   4.98361795160531     -6.42185287443565     -0.29140390940261
  N   5.88037067879819     -5.44401332967393     -0.20448051656729
  C   5.54697662929982     -4.20812987209824      0.32075737381631
  C   4.18199146950980     -4.32845969080822      0.56816262947156
  C   3.73090021700835     -5.70011980208940      0.20812434436527
  O   2.60329597208722     -6.15282596525094      0.31161584044625
  C   6.82534031307104     -3.57311472955030      0.38779994270593
  N   7.14132601403029     -2.35372181734139      0.79607880749153
  C   8.41873893042684     -1.95826959516623      0.78763489557406
  O   8.88320891618717     -0.89850561896693      1.09833265055904
  O   9.43748054348941     -2.91965776719262      0.34594468424721
  H   5.54392065110757     -8.51703645853137     -0.85452486822825
  H   3.50942386558056     -3.59319477672652      0.97538422935048
