25
Coordinates from ORCA-job 3077optt
  Br  1.10394842994193      0.60528830457571      0.64520740196917
  C   2.98267645785324      0.32793337270280      0.52316721613356
  C   3.88235192381493      1.32829483951453      0.68110709307096
  C   3.68394493403297      2.85269557985617      0.72318445118950
  N   4.89066731532055      3.29741244347221      1.46755629481013
  C   5.83271923911548      2.57040024935881      0.57199057890260
  C   5.38529428440977      3.17277093600947     -0.76500706869537
  C   4.07135834043482      3.34208333384155     -0.67521489875490
  C   5.27474458777029      1.14328090902428      0.60195877076343
  C   5.91174918051014     -0.05672425038431      0.27772053589476
  C   5.25464520833486     -1.29389230168793      0.15146518158164
  S   3.44336642342883     -1.36360669111945      0.39217491749400
  N   5.86185569636027     -2.41784466338362     -0.09268162754506
  C   5.11526313406771     -3.63274523868479     -0.20217758590154
  C   6.05685917210426     -4.79087038245212     -0.41987428541038
  O   5.71721345606461     -5.93713179203392     -0.56354422860515
  H   2.74033040879897      3.20790785968205      1.12759403982171
  H   4.89358709873179      2.80776573178369      2.36039804560283
  H   6.88258164018884      2.68869430622359      0.83136332602787
  H   6.02181308649663      3.30278132404183     -1.62788507467365
  H   3.37084096957513      3.64051148878777     -1.44019954024747
  H   6.98692629316771     -0.09684281402614      0.14562928539673
  H   4.39575987489175     -3.64196154046818     -1.03830406435083
  H   4.51947964218319     -3.87766140674884      0.69383958308626
  H   7.12602320240125     -4.50153959788516     -0.43546834756081
