22
Coordinates from ORCA-job 3078optt
  Br  1.03099478980471      0.08921184430375     -0.05219996098350
  C   2.89357737360467     -0.12537086059311     -0.05316635437209
  C   3.59727419071689     -1.33331721034119     -0.05317694128136
  C   3.02172510143176     -2.63631714875633     -0.05297492946297
  N   1.72535793799551     -2.99990954641763     -0.05279764318581
  C   1.74621147573378     -4.35375325380290     -0.05268160230645
  C   3.02441618490338     -4.89996521167499     -0.05288476490500
  C   3.88366350838235     -3.78321005577623     -0.05301773486524
  C   5.25953229352848     -3.54955109560686     -0.05324246588301
  Br  6.45183636214867     -5.06745924965451     -0.05329377906522
  N   5.81646321889035     -2.37403203562270     -0.05345116324007
  C   5.02931831916227     -1.28659254394824     -0.05342439620138
  C   5.68526020553068      0.02311403856248     -0.05365181679553
  C   4.93093747595658      1.14931341551785     -0.05373196198254
  N   3.57519591822149      1.09084879684943     -0.05349263168575
  C   7.10358514203044      0.14120147473455     -0.05379898142137
  C   8.29970141011596      0.26159088969133     -0.05392856897680
  H   0.81349170576667     -4.90462812849359     -0.05253438147026
  H   3.30533671098425     -5.94082230686362     -0.05290229273068
  H   5.36987698190063      2.13641710789378     -0.05397823713654
  H   3.03102997930301      1.93517859928260     -0.05362647972903
  H   9.35921371388743      0.33605248071614     -0.05404291231942
