25
Coordinates from ORCA-job 3083optt
  Br  0.92736813912766     -0.60293688683739     -0.09922446160783
  C   2.80205794049092     -0.37982832489397      0.14827708709662
  C   3.27866995475373      0.92591655126758      0.35042803207410
  C   2.71474266719645      2.29358614325596      0.07789049250399
  N   1.97863708704984      2.91609733068401      1.19773149191561
  C   2.33251949598520      4.32856912818932      1.17249401099599
  C   3.82792730496206      4.38406964984204      0.82693909223511
  C   3.99600379649751      3.22820911304032     -0.16420677719907
  N   5.12188312939260      2.33739987485931      0.09727882109845
  C   6.46186730765993      2.20727888959688     -0.16907856834191
  N   6.86182880733735      0.95437422364058     -0.04857501369536
  C   5.73973628656700      0.23944206440429      0.29367571971458
  S   5.41477954070642     -1.48052197817649      0.38191458004908
  C   3.58120801209451     -1.56496163496024      0.12815855165647
  N   3.10831803636691     -2.76473174656415     -0.01438527696158
  C   4.67141812081923      1.08202599789357      0.37870913606948
  H   2.06100003313111      2.31396791680442     -0.79950314110184
  H   2.31650699979135      2.48594782863690      2.05387924568850
  H   2.08957047448764      4.80992068889144      2.11985314306155
  H   1.74961026476277      4.82340484830356      0.38823947915070
  H   4.41813056676486      4.16742791001359      1.71954580506781
  H   4.15101144121054      5.34509451706046      0.42418578903074
  H   4.04077467946738      3.58227461170783     -1.19556322930983
  H   7.10328049933627      3.04456422043626     -0.39215670725922
  H   3.85414941404065     -3.45459093709616     -0.02850730193213
