23
Coordinates from ORCA-job 3085optt
  Br  1.03022954538669      0.10742096005043      0.16928971920789
  C   2.89452178060826     -0.11051257577444      0.06621412077098
  C   3.53042924191378     -1.37260736332795     -0.01128202002314
  C   2.97459472747842     -2.66626860910223     -0.05739357457549
  N   1.68672159055415     -3.06413411395268     -0.05551144097733
  C   1.75026364125252     -4.41628209538245     -0.12326640506950
  C   3.04085241928080     -4.92900825020830     -0.17033361550883
  C   3.87622231980519     -3.79109698345676     -0.12854441672044
  N   5.21472466567959     -3.69201305956334     -0.15170245253449
  C   5.73228255193313     -2.47218178937470     -0.11208430265412
  C   7.22505559483619     -2.34044954626381     -0.13206644075575
  C   7.85645996973000     -1.88048504614892      1.15668577767346
  O   7.28614618480077     -1.65950629422444      2.18576959048068
  C   4.94053107142219     -1.31935410188907     -0.04738749189073
  O   5.63267904602970     -0.13738194781709     -0.03294842034032
  N   4.99165478422109      1.08324509324252      0.02790564722713
  C   3.68530055234829      1.03586414468360      0.07995008323004
  H   0.83192860099185     -4.99132741534303     -0.13635130196007
  H   3.34648221290464     -5.96167146396727     -0.22385366187668
  H   7.57032139931746     -1.64246988709578     -0.90376286890717
  H   7.65766619933819     -3.31701672005342     -0.36999399133401
  H   8.96014423107515     -1.75608260629743      1.09810026829748
  H   3.22578766909188      2.01531967126658      0.13756719824039
