22
Coordinates from ORCA-job 3093optt
  Br  1.69652622987484     -0.74938053631624     -0.10600870899618
  C   3.25064943899013      0.37691874782467      0.08983991697798
  C   3.15928092932634      1.74433279354843      0.19631386475425
  C   1.81736552061897      2.45158060019943      0.43816660117979
  N   2.18321388140040      3.81956448655227      0.79704794421698
  C   2.40671370348367      4.41539912335592     -0.30023941542586
  C   1.82765957089693      3.80583889009554     -1.55371985530224
  C   1.11667234585933      2.61833072979544     -0.91622946101045
  O   0.15921292400812      2.03763076312809     -1.33870657096800
  O   3.32018880503550      5.40505586362532     -0.37454145727404
  C   4.63982434368014      4.75058349621927     -0.42530399476376
  O   4.72317753441819      3.66330285432698      0.40520117821984
  C   4.37351442897526      2.40565541567649     -0.11522662979429
  N   5.37805647513115      1.81868669940044     -0.77919414498420
  C   5.37916999340533      0.50708099005738     -0.98024860320941
  O   6.10810292305170     -0.17325895350381     -1.65660164076283
  O   4.39002303238087     -0.24872778675598     -0.21740673679319
  H   1.20013333039420      1.94102392317742      1.17291906490525
  H   2.59739231098172      3.47111357345977     -2.25359339891201
  H   1.14155349921694      4.47275867331048     -2.07580526826696
  H   5.33109920775428      5.51443740061964     -0.08037747472354
  H   4.83046957111594      4.46707225220299     -1.46428520906710
