26
Coordinates from ORCA-job 3094optt
  Br  1.29458398935106     -0.83027011044794      1.47082373312212
  C   2.97784273684975      0.26410152689777      0.04196144128181
  C   3.74041741388980      1.28220790948294      0.53964475879974
  C   3.48933480539408      2.52455700729257      1.37294134437934
  N   4.81173177915863      2.72966145093272      2.04353393534985
  C   5.76261801294392      2.43042705059027      0.94857349939387
  C   5.86432064423935      3.66730890163693      0.02959799876873
  C   4.47931140439572      4.19287096543153     -0.16095653730551
  C   3.36267039161266      3.71580662101543      0.46081584147105
  N   2.24954386981201      4.41278077016082      0.07522488864864
  C   2.68649941472165      5.30639025621226     -0.77472100786146
  N   4.03511882081924      5.21868588166647     -0.95644139501986
  C   5.10879677300566      1.26261086164299      0.21912981645640
  N   5.74142195012022      0.41701367984440     -0.54348030331855
  C   4.97519756631016     -0.59776503436780     -1.09203198872827
  N   5.40145893305013     -1.50593111146918     -1.89404394071018
  N   3.61935549737788     -0.63538162847621     -0.72580948147717
  H   2.67295851345442      2.44247801881426      2.08635190913975
  H   4.90507007379324      1.98306567762665      2.72663498790485
  H   6.74660055602043      2.16601688713328      1.33294697594394
  H   6.32592108635666      3.37019071657118     -0.91635688957746
  H   6.50512151114780      4.41669535163227      0.50369885447601
  H   2.08633109557915      6.03953376259448     -1.28941244213462
  H   4.59096814782473      5.78900539118774     -1.56867594476846
  H   6.39342565962735     -1.34679941965603     -2.04235694917798
  H   3.10937935314413     -1.43726138394988     -1.06959310505658
