27
Coordinates from ORCA-job 3095optt
  Br  0.59944911724689      0.48867518413455      0.83993286345937
  C   2.53732335397185      0.23491357105283      0.65007687814386
  C   3.04602136825479     -1.03089830735839      0.80503845672924
  C   2.26495556144073     -2.30047666191170      0.94943051848304
  N   2.32552741201911     -3.14315391419324     -0.27082458260380
  C   3.57894154716455     -3.91253278816448     -0.24944834957820
  C   4.21713546419450     -3.64031680927870      1.13376036205382
  C   5.16055533038740     -2.41446540166438      1.10347665089478
  C   4.47511721177539     -1.18169540213454      0.60385708481431
  C   5.17977518964286     -0.00877213188123      0.26192355432209
  C   4.52789481415902      1.18685600778789      0.13438443076863
  N   3.17294266793216      1.34929460448983      0.35342897485588
  C   4.92245959969213     -4.79989002405672      1.66418621472276
  C   5.51711512517583     -5.74875586574457      2.09372485997748
  C   2.97336251393817     -3.22247344477939      1.96683578113719
  C   2.13508681354303     -4.35729897273199      2.35053616539494
  N   1.46635080080237     -5.23175759041843      2.67333873082600
  H   1.22997031149937     -2.11548429559772      1.22410657252905
  H   2.29378006193728     -2.53269890267648     -1.07711056318181
  H   4.27230464389526     -3.60597927000388     -1.03622316495533
  H   3.36963406447524     -4.97992803024191     -0.35755378496083
  H   6.03172840014302     -2.66115620272139      0.48831985999454
  H   5.53853440669303     -2.29781875882924      2.13649028287610
  H   6.25311066407460     -0.04635534724818      0.09743833964835
  H   5.06274381643720      2.08364910551830     -0.15685775306172
  H   6.02910317615208     -6.59451379116064      2.48310442342433
  H   3.26307656335210     -2.68296656018617      2.86862719328590
