30
Coordinates from ORCA-job 3100optt
  Br  1.00774316866240     -0.17309988722823     -0.52793413380366
  C   2.81900770913750     -0.17878168738596      0.06267257589179
  C   3.44976493005116     -1.39778737226577      0.45760549202945
  C   2.73720123038694     -2.69766860649204      0.70671857054426
  N   2.86551983244853     -3.69846770239337     -0.37731867568350
  C   4.11947154941414     -4.43818741179558     -0.41274720069261
  C   5.42956860141792     -3.64800531394094     -0.28619428016088
  C   5.48663068367486     -2.71950133089343      0.94520906390084
  C   4.79172976873752     -3.36753049902470      2.15289866315775
  C   3.23696659768119     -3.27550890045228      2.05920625059237
  C   2.59234288471246     -4.54108466515234      2.41118412211191
  C   2.07334906792280     -5.57920373638350      2.71750327864229
  C   4.84180612146706     -1.39212239069727      0.65018318207925
  C   5.55949745757817     -0.23675707172521      0.53552601159268
  N   4.88469921473753      0.95519450766987      0.26419452987501
  C   3.52401739927592      1.03303964710136     -0.10657155065802
  O   3.10429146538094      2.12430475713426     -0.51632382271458
  H   1.66945719284954     -2.50757555644485      0.81543458751252
  H   2.73284404581546     -3.19655448422443     -1.24849801616701
  H   4.13613511864674     -5.01038249820509     -1.34369289402479
  H   4.08292887719482     -5.17927116479441      0.39137337256828
  H   5.60020964549841     -3.04383598509589     -1.18085376687021
  H   6.24219504622275     -4.38204769679378     -0.22516228593655
  H   6.53644247602597     -2.54811398819333      1.20121656205142
  H   5.11502310835293     -2.85612675057619      3.06062931279632
  H   5.09563341444502     -4.41269454387549      2.24604932870459
  H   2.90717733184654     -2.54137300888168      2.79673596249129
  H   1.59810435671312     -6.49656466844311      2.96517197196529
  H   6.63147583493529     -0.17932028425140      0.66264715376731
  H   5.39476586876623      1.79502829370486      0.05013663443717
