25
Coordinates from ORCA-job 3101optt
  Br  1.13329043643873      0.23933917635725      0.75415043422022
  C   2.94639519547877      0.10610724827889      0.17131047712109
  C   3.85925410010972      1.08799056831071      0.57526633233100
  C   3.61612010187752      2.45045269787619      1.19820824902097
  N   4.90664479060592      2.78186406000594      1.84633472002471
  C   5.75428482466574      2.43529693571939      0.67758548088734
  C   5.20880468106547      3.43669079737314     -0.35684480277589
  C   5.71901475481683      4.87312401120992     -0.19451188678042
  C   7.13494709858119      5.00783052545866     -0.52476770455282
  C   8.30159433438883      5.09331027566254     -0.78975203785272
  C   3.71226735243443      3.38348036577767     -0.00603765697086
  O   2.82856632861011      3.96055274895783     -0.58826092051301
  C   5.23236006953382      1.07488004571562      0.24170401099338
  C   5.86359748848476      0.11787055245081     -0.47937106088242
  S   5.00756941897597     -1.28704304079204     -1.07232921779447
  C   3.24902642790627     -1.05328903985785     -0.56765345528894
  O   2.51011413602813     -1.95956520724423     -0.91877972818540
  H   2.72745695241585      2.57793977070882      1.80707394715194
  H   5.07442588126622      2.09388556591027      2.57743143335431
  H   6.82298073718834      2.51251643085189      0.87140551018160
  H   5.38131561399391      3.08963803282026     -1.37684881017942
  H   5.55897623274694      5.18663782887080      0.83978257081328
  H   5.12638965638474      5.53057578910355     -0.83454550397308
  H   9.33477863925353      5.16854132843641     -1.02710896497944
  H   6.91582474674819      0.16437253203755     -0.72844141537096
