26
Coordinates from ORCA-job 3102optt
  Br  1.58308869792555     -1.77029070574022     -1.35576978561405
  C   3.41473774385722     -1.05463205931161     -1.31214889162631
  C   4.38378208255491     -1.76556991777908     -0.59656217456005
  C   4.61022179670736     -3.20260256989816     -0.46256180401161
  N   5.58038889987697     -3.53243921205598      0.32058548226214
  C   6.37649444148501     -2.32450698977194      0.46552688429297
  C   7.54245218653240     -2.48237794243987     -0.58228083698187
  C   7.57145593629314     -3.84853455530302     -1.30999497674693
  C   6.39141897330514     -4.11199958239115     -2.24776297118818
  O   6.38748108134179     -3.63319321215769     -3.35621747760581
  C   5.18892477615425     -4.99706196303356     -1.82472300040263
  N   4.08533559279761     -4.17701105124919     -1.30368477710875
  C   5.47405309136935     -1.17906504209258      0.05159959801739
  C   5.74574991279445      0.16839333848622      0.19504767121140
  C   4.92971006259813      1.19159939461120     -0.35050656805059
  O   5.06876433422645      2.39705561361516     -0.24812393262173
  S   3.49611454434695      0.68069648975126     -1.38864967182775
  H   6.78465858815686     -2.20472693432255      1.47033159537514
  H   8.50612785585146     -2.35313475692171     -0.08602784528837
  H   7.46332131821486     -1.69143715391533     -1.33056346804864
  H   7.64557654093583     -4.65125143556931     -0.57748990302148
  H   8.45757449805308     -3.85294016716574     -1.95103588467594
  H   5.49365366865941     -5.71185076122644     -1.06253164909939
  H   4.84166245914749     -5.52337581658758     -2.71362815989419
  H   3.50846075764081     -3.77454081918646     -2.03134324737420
  H   6.61679015917341      0.50779781165541      0.74351579458943
