20
Coordinates from ORCA-job 3111optt
  Br  1.01211949085217     -0.31879914805074     -0.04953033482541
  C   2.88182713706963     -0.07269297776173     -0.04582825549010
  C   3.44118120394817      1.18599279863099     -0.04554184848002
  C   3.22849234372391      2.64100092331417     -0.04645987569590
  N   2.26456501882926      3.51923821596545     -0.04827627156571
  C   2.88516350685564      4.75094933179276     -0.04741101805976
  C   4.24726120563343      4.64079971073800     -0.04498942079689
  N   4.49249488178718      3.29057175439833     -0.04441344620365
  C   5.50885710233479      2.33016131002054     -0.04208395224751
  N   6.80084493944075      2.17215502677011     -0.03932705804970
  O   6.97544519067766      0.75637001941772     -0.03828025366860
  C   5.74363785423041      0.14579613651618     -0.04044362842723
  C   4.83142133928175      1.11759034809134     -0.04293025214511
  C   5.26252786752508     -1.21470088780469     -0.04059429670968
  N   5.94837529051852     -2.30775476839593     -0.03880258809302
  C   3.71600170998604     -1.29752980607036     -0.04341231642402
  O   3.20067710157209     -2.41230207101561     -0.04359233297362
  H   2.30762042355813      5.66140688418149     -0.04842253114995
  H   5.03101852889144      5.37606465098754     -0.04359248387928
  H   6.94146786328389     -2.07331745172558     -0.03706783511484
