25
Coordinates from ORCA-job 3112optt
  Br  1.16893182816347     -0.01711364279795      0.31262348212210
  C   3.04343557040649      0.03283609377654      0.12107689368461
  C   3.74011276245659      1.25309146621140      0.00909266564747
  C   3.33405974226575      2.63966167480886     -0.00776434650439
  N   2.23765319897648      3.37510082456540      0.05154482032709
  C   2.68790532399269      4.66934880536655     -0.00832398470966
  C   4.05541091061643      4.72914811902335     -0.10379600223119
  N   4.45643965662896      3.42180029529443     -0.10577687663251
  C   5.68966726634071      2.66298658461604     -0.14899665848596
  C   5.14929014129165      1.25128600449301     -0.09640462901086
  C   5.85689508965404      0.08498499543922     -0.13466065667974
  C   7.35023286858823      0.00561389941605     -0.16137015411738
  C   7.73384147354300      0.41242776328050      1.23370533981911
  O   8.27556940632216      1.46593686752198      1.51026214476557
  N   5.13396792327039     -1.09608355592250     -0.03762472229150
  C   3.72897694467898     -1.20873585962973      0.10193384428636
  O   3.26055686226355     -2.34605023573827      0.17903719510535
  H   2.00326439621226      5.50264072056266      0.02023247281729
  H   4.74079527607590      5.55613110706221     -0.16787559983036
  H   6.33778701643732      2.89675088537076      0.69992524200448
  H   6.24819848282784      2.86490092828409     -1.06749137874924
  H   7.79207465853469      0.70490234675300     -0.87409172066712
  H   7.67752951774479     -1.01099757300078     -0.39769438443889
  H   7.38256800860368     -0.27214668703522      2.02675367525675
  H   5.59383567410384     -1.98542182772163     -0.14931666148736
