24
Coordinates from ORCA-job 3115optt
  Br  1.00607012184042     -0.29502370207206     -0.18258322597333
  C   2.86799239520308     -0.11834497790509      0.06329102667035
  C   3.53493755075637      1.15920124104121      0.04282309101536
  C   2.93413715784789      2.44520409840931      0.06404811495200
  N   1.68975816839168      2.78329285976087      0.19431307048625
  C   1.59331642217688      4.22416577498920      0.03967472977965
  C   3.02769991234346      4.77767128820088      0.14584140409024
  N   3.80066826805259      3.57587301466254     -0.08253231164896
  C   5.16085199108786      3.54105173900914      0.00093842053733
  N   5.96417556776628      4.54066866544392      0.08333892498641
  N   5.67713287239754      2.26892301575928     -0.02257216354109
  C   4.95783453625825      1.08904316251668      0.02696038900915
  N   5.69562757711057      0.00432298005056      0.06634396901526
  C   5.03778119432652     -1.18771774746065      0.11823169371858
  C   3.65560284708109     -1.27696338182909      0.10229291544248
  C   3.08537308309881     -2.59048194471006      0.12360371538884
  N   2.67779603534439     -3.66531518511945      0.14202991698088
  H   0.93527968316527      4.65761594285514      0.79578969068835
  H   1.16267255140703      4.46952930864810     -0.93971659523749
  H   3.24687134621382      5.18795889286981      1.13904830881477
  H   3.24857066295510      5.54182352053545     -0.60174128881983
  H   5.45241164854237      5.41534352781180      0.08126257867376
  H   6.68018112704990      2.18715002003708      0.02400679475412
  H   5.64025727958264     -2.08399211350465      0.17230683021689
