24
Coordinates from ORCA-job 3119optt
  Br  1.26789819130862      0.54808343806023      0.51656555601747
  C   2.96947040643346      0.10215211889327     -0.36421572524936
  C   3.53452350109535     -1.13946691765181     -0.07521169946524
  C   2.92464914022132     -2.46309887817165      0.22710531832403
  N   1.93498387490568     -3.03830087797537     -0.67552056181238
  C   1.73221509953404     -4.42501828875064     -0.26300199596490
  C   3.01979511068247     -5.27430676785965     -0.21551610285219
  N   4.26589700174571     -4.55691011102003      0.02959388940319
  C   4.17950133497275     -3.32370369336439      0.23259091412389
  O   5.29856159184507     -2.54181291318381      0.32343011965806
  C   4.89279365237541     -1.24204151844313      0.09906344428974
  C   5.77295463973596     -0.14917491586091      0.06600050304591
  C   7.18832058077485     -0.19137596454048      0.31325159727538
  O   7.85523608078520     -1.17568674843883      0.59626950568791
  C   5.17911250144769      1.13647794844806     -0.21921409972328
  O   5.74236534102310      2.19967116068490     -0.29588223373730
  O   3.79484765239743      1.17532309241929     -0.46479472651387
  H   2.46451705570817     -2.45185256589754      1.22504268121261
  H   2.29622079961127     -2.99222876935061     -1.62439077535881
  H   1.00999080062340     -4.89581493496451     -0.93198147871562
  H   1.27433141595437     -4.38691570835355      0.72922353150746
  H   3.15871889129783     -5.79220965483878     -1.16959003089002
  H   2.91414675884185     -6.05697481204782      0.54041167140862
  H   7.66794857667889      0.79918628220780      0.22877069832870
