25
Coordinates from ORCA-job 3125optt
  Br  2.30216070348627      0.25820963230914      2.70905956029138
  C   3.47121959017786      0.14316354784676      1.22581015718058
  C   3.57327194481729     -0.99443772337556      0.46631262006541
  C   2.80304369728433     -2.28424463987356      0.60769529967658
  N   1.37779204252693     -2.11051718976930      0.31386743970119
  C   1.11854859113485     -2.10430332483585     -1.11616029278797
  C   1.52118555727840     -3.40121948826717     -1.79289438344237
  N   0.92854775692021     -3.94707447584235     -2.78423688628252
  N   2.58886807635673     -4.00968890417089     -1.18852794061748
  C   3.52162621698797     -3.23915603414716     -0.37871602411969
  C   4.47017438204196     -2.34916455941837     -1.20068886596239
  O   5.09259614486355     -2.76724489167478     -2.17043200581693
  C   4.49493033086652     -1.04723018140875     -0.59180758224697
  C   5.28020790069910      0.05872696244909     -0.87482546035017
  O   5.14772274079192      1.21030611653323     -0.11993964273892
  C   4.27767062123027      1.31064881025717      0.94213510106964
  O   4.26071684923468      2.36064451899622      1.53854369739795
  H   2.86733145454643     -2.64427421652931      1.63696826778164
  H   0.85994272803648     -2.86845928065590      0.74248964935365
  H   1.68580734056603     -1.28268717402116     -1.56413128108688
  H   0.06030545245064     -1.91684865579436     -1.30039989052721
  H   0.12730693044453     -3.38444728448995     -3.05762664181707
  H   3.00376593954691     -4.74262511286217     -1.74688640674044
  H   4.13561360668563     -3.96166107863990      0.16639385866183
  H   6.02264340102450      0.14158462738488     -1.64900234664284
