26
Coordinates from ORCA-job 3130optt
  Br  1.00520783270698     -0.21001515259604     -0.39113553779218
  C   2.86538378616050     -0.02707470330755     -0.08684561724600
  C   3.47198837851315      1.22506141186998     -0.09977906190726
  C   2.85183931203797      2.58097309547722     -0.24737371449806
  N   4.01457070314544      3.44684335737194     -0.46627514885133
  C   3.90673607271646      4.85016658971636     -0.14153857315627
  C   2.43298097466832      5.18806925834795     -0.08424067534133
  O   1.77733575301672      4.42122948818370      0.91430653218087
  C   2.06665386899189      3.08533686072360      0.96097947160570
  N   1.66120353117225      2.43962705512292      1.95646750109811
  C   5.20402864360502      2.76165401116623     -0.19733038182730
  O   6.28507897867675      3.32592244183131     -0.13133495340380
  C   4.85878670257164      1.35858788599555     -0.04426064660341
  C   5.67599467881978      0.24623506062383      0.07531173949188
  N   5.02851766787220     -0.99491560349845      0.23497059495722
  C   3.65719114740033     -1.22336655158048      0.02093955530173
  N   3.16195371098746     -2.41516849391888     -0.04416411842087
  H   2.17397243980126      2.61046803816503     -1.11071255702807
  H   4.40918704932985      5.46095012799633     -0.89507909472226
  H   4.37404506490718      5.06524581696781      0.82712607004774
  H   2.27866327440122      6.22951928193333      0.19268717717930
  H   1.96537806571076      5.01619760517214     -1.05999792877972
  H   1.91992466973597      1.45941802062390      1.85511315902810
  H   6.74845255558296      0.27076244041915      0.16987523005342
  H   5.59617165647441     -1.82160515596503      0.16014264990833
  H   3.89875348099342     -3.10912218684189      0.06514832872545
