27
Coordinates from ORCA-job 3132optt
  Br  0.60743001828123     -0.05146841127374      0.36538210973808
  C   2.97895580471634     -0.17016492040604     -0.41617029413782
  C   3.67119265382968     -1.33848269362487     -0.32362138799658
  C   3.25329969631029     -2.77303936338596     -0.33598612195638
  N   3.49142503930839     -3.34630500599932      1.02040979264678
  C   2.90066113090112     -4.64938731216671      1.22382348666888
  C   2.86455934645858     -4.96429698548004      2.70029855768566
  O   3.08421758297334     -6.04701552313947      3.17260532075593
  C   4.97073341496518     -3.33830414038764      1.20553252575236
  C   5.53203805641398     -2.74176142226833     -0.10969343878687
  C   4.47628468268405     -3.33642993812870     -1.06987329705855
  O   4.61048424896411     -4.03823337361385     -2.02831590319535
  C   5.08617713643254     -1.30201372910409     -0.16573047585404
  C   5.78321529542453     -0.14037828992759     -0.07694870854378
  C   5.06349026630766      1.11414228200069     -0.14435740623904
  N   5.52768707409995      2.31607490203095     -0.07225286265407
  N   3.67890092061332      0.97457953295284     -0.32102487671070
  H   2.26278877113702     -2.99706553970938     -0.71586332600245
  H   3.39319265901287     -5.47815814110561      0.69302722169140
  H   1.85572705405363     -4.60435880781981      0.89690044129771
  H   2.60797246605575     -4.09591677821135      3.33649005073358
  H   5.34611633363118     -4.35847485918716      1.34327159046454
  H   5.25208758262804     -2.73864346638172      2.07243112707936
  H   6.57285888846609     -2.96488788880354     -0.32194776141356
  H   6.85800319761322     -0.10917281574016      0.04601242261419
  H   6.53513512071209      2.28467213392549      0.04998766737400
  H   3.17536555800556      1.85149055495526     -0.36438645395332
