26
Coordinates from ORCA-job 3136optt
  Br  1.27406403167972      0.40425960135408      0.99899130238806
  C   3.09988882372939      0.22517697069768      0.52602023451174
  C   3.89516310082952      1.36532558522647      0.28023695751823
  C   3.63379418471005      2.82278583190103      0.53763503645540
  N   4.67207177089433      3.46500920648183     -0.27900334488843
  C   5.84447735810292      2.58654889145081     -0.20854604557175
  C   6.67452367963951      2.73959172023573      1.09700654525801
  O   6.70753848554847      4.07034715275994      1.61401710121354
  C   5.81170603725894      4.30442891887310      2.65450980894424
  O   4.47490553166367      4.37969748530210      2.21379734950230
  C   3.82406028507222      3.15699180605639      2.02858955689251
  O   3.51787926045572      2.49446369973098      2.96913202139861
  C   5.19989825038321      1.22504165357844     -0.19793998865221
  C   5.74191969151648     -0.00579563203450     -0.42968447555215
  N   4.92711291230659     -1.11730390543650     -0.18369107589072
  C   3.58354271199291     -1.07823468082956      0.24819344555930
  O   2.97981304507193     -2.15329631793320      0.33464758255908
  H   2.63131174904440      3.15312458805509      0.24293833053525
  H   4.89391561547584      4.38868674675589      0.06968643901188
  H   6.48951855995090      2.76908052314123     -1.07140354653058
  H   7.70829737087651      2.44629291753073      0.90503178699470
  H   6.27228130960684      2.06426185823599      1.85969042429210
  H   5.88901244002403      3.52320752094908      3.41943957510795
  H   6.05612761426250      5.28138629538913      3.06515779160986
  H   6.73600155197481     -0.19140051092937     -0.80814441620958
  H   5.24417462792850     -2.04667792654261     -0.39830839645735
