26
Coordinates from ORCA-job 3140optt
  Br  6.36514042732842     -3.44346354328953      0.48985736782917
  C   5.59143733602928     -2.83226336901987     -1.15170609471264
  C   4.73076629941326     -1.68136154145246     -1.30669863319974
  C   5.67623332037796     -0.53767941123222     -1.24823729752832
  N   6.34215038087533     -0.23804577193272     -2.32254713842406
  C   7.67504228769686     -0.33865041109217     -1.90150728359130
  N   7.78882382441566     -0.20657207100136     -0.49869792388447
  C   6.43154554343776     -0.15167178465924      0.01637319587312
  C   8.55383757725413     -1.02602702880208     -2.66311619769172
  C   9.21833101256152     -2.20497316039602     -2.04727043318395
  C   8.61575681509957     -3.40536883787653     -2.04266920976161
  C   7.34000707572757     -3.75280921551357     -2.72769917304969
  C   6.07132585532886     -3.47682879276802     -2.36163468981982
  O   5.08459622144675     -3.67605608369103     -3.30167126853368
  C   3.77236565013682     -3.25298366580838     -2.92207671815094
  C   3.81270757015235     -1.81849423521570     -2.38763667947825
  O   3.13916025140807     -0.93449349550913     -2.91334744567227
  H   8.46208694020249      0.47029486781895     -0.18226156201122
  H   6.11562105556382      0.85179228880555      0.32683366591800
  H   6.26605577469180     -0.84057605118603      0.84057776251013
  H   8.26742794627440     -1.11774828611657     -3.70313223149091
  H   10.17415307606733     -2.12131172696356     -1.53745181594501
  H   9.14755187235172     -4.21805143731097     -1.55028342347481
  H   7.43991779253305     -4.19039526663025     -3.71848044635278
  H   3.36446843853230     -3.93970067359416     -2.17213916764910
  H   3.17148965509273     -3.28356129556285     -3.82737715852411
