28
Coordinates from ORCA-job 3145optt
  Br  1.10222349677083      0.07955019846486     -0.70431632247546
  C   2.93259289226178      0.00874209026642     -0.20638988383405
  C   3.59710684611251     -1.24709883765860     -0.13417347390652
  C   2.84465554449226     -2.53370839128102     -0.24302010439934
  N   1.88560864576879     -2.79763368693032      0.88105151048009
  C   1.92231732231389     -4.03760645178129      1.10201670556580
  N   2.90900719259140     -4.80063957144763      0.44386241934485
  C   3.72351389793354     -3.79846798270967     -0.26458578473379
  C   5.00709978439553     -3.58819857746479      0.53554981873695
  N   5.72509056816220     -2.45424603895734      0.01169186941958
  C   6.90910193511562     -2.56531466794654     -0.65001835994525
  N   7.71658628092356     -3.55507642288611     -0.74956587528840
  C   4.99672205145824     -1.22540389927505      0.03533195420446
  C   5.66843719327008     -0.05003913706906      0.22627567156127
  N   4.95195784277985      1.15280125035751      0.28257141806579
  C   3.58579475197774      1.25965927151059     -0.06141804428804
  N   3.01815488242116      2.42293655494897     -0.19808801250764
  H   2.20495964549004     -2.50788466922228     -1.13480967287393
  H   1.26944630592801     -4.54067148653046      1.81021165121744
  H   2.56550464545153     -5.57842174663574     -0.10250714859723
  H   3.96662112436681     -4.11772030021340     -1.27793734124615
  H   5.61658608653559     -4.48861970190640      0.49627759762749
  H   4.74027783422050     -3.40401337378686      1.58055815291643
  H   7.17228196896345     -1.63876683326311     -1.15718723824446
  H   7.39533232138965     -4.36465910534784     -0.22362442599240
  H   6.72197525010578     -0.00207553907094      0.45447634017457
  H   5.47403726482416      1.99852927073406      0.12553741086941
  H   3.69400642397531      3.16004778510215     -0.00777083185150
