26
Coordinates from ORCA-job 3147optt
  Br  0.51130848401124      0.34535391855688     -0.92831100367635
  C   2.86508624440050      0.14164886599769      0.18782645362104
  C   3.50734910678197     -1.06912204290902      0.01099110950808
  C   2.72249013203491     -2.35259471529781     -0.00460957821666
  N   2.21291944454217     -2.79609986071855      1.31886595913017
  C   2.33588520744139     -4.05267613321777      1.33449125901426
  N   2.90020452186299     -4.65906599077794      0.20285415219274
  C   3.54940618502108     -3.54876502113190     -0.50225822551714
  C   4.98867674953179     -3.38259234956189     -0.02966742580398
  O   5.58096423629017     -2.21024972955894     -0.53324743504912
  C   4.89297009696558     -1.04963250142047     -0.27101443919334
  N   5.64424309804474      0.02949846084917     -0.35260283609395
  C   4.98316111884152      1.16681785494203     -0.14885743308623
  C   3.60882019655187      1.31318630857927      0.12130583952255
  C   3.35176620030026      2.72067401654436      0.22185539781327
  C   4.53858416895478      3.35646292882773      0.02853458042439
  N   5.53584814574872      2.41967664434997     -0.19036896896807
  H   1.84085409674272     -2.18461572562692     -0.63165766068783
  H   1.99894791471730     -4.68140572771270      2.15308772696581
  H   3.46464403092430     -5.48058147096628      0.37494401610993
  H   3.50424432567017     -3.66683893056239     -1.58414030075076
  H   5.61542349623150     -4.21125891116750     -0.36541423900299
  H   4.98926681109592     -3.36006301523148      1.06830709238694
  H   2.39120542198702      3.17710348340136      0.39189976245880
  H   4.77113529936108      4.40854666313739      0.02200294745979
  H   6.50159526594420      2.60459298067576     -0.39081675056135
