21
Coordinates from ORCA-job 3150optt
  Br  1.02009096530879      0.28683293102794      0.01123041747797
  C   2.88667018687605      0.11812821439896      0.01985281133467
  C   3.50920601270553     -1.11995380860695      0.02159725415795
  C   2.94338351852967     -2.42519976309734      0.02031220631708
  N   1.68028220215850     -2.86608561516051      0.01827577005836
  C   1.83770418522429     -4.21566706308223      0.01868510070471
  N   3.06658253475200     -4.70564815712365      0.02071678598179
  C   3.82085208546202     -3.56774782202619      0.02174929282102
  N   5.14020399559657     -3.52827748501752      0.02404858672357
  N   5.63739703077379     -2.30695320591170      0.02559026076428
  C   4.95083354146997     -1.13446705363585      0.02503178801994
  C   5.66704285359117      0.06295418121404      0.02753039604115
  O   4.99446078139107      1.26079678382890      0.02786783000595
  C   3.62688229269376      1.36250432691563      0.02425210937473
  N   3.09891226772343      2.52098899953444      0.02519327707696
  C   7.07248887109225      0.17541985227472      0.03027874032762
  O   7.87102617162145     -0.77645682780279      0.03061283547598
  H   0.97009426829468     -4.86361337083750      0.01771546765487
  H   6.65369282564410     -2.22028265924514      0.02758652001306
  H   3.83669111569663      3.22139769419636      0.02862354615834
  H   7.44350229339422      1.21332984815638      0.03224900351003
