25
Coordinates from ORCA-job 3151optt
  Br  1.69383447685912     -0.74179253349174      1.74213596476462
  C   2.84686948181006      0.10487055735023      0.47914706849402
  C   2.98921246737937      1.51811411935246      0.49917198462044
  C   1.78649188342169      2.39659327688515      0.87888579028568
  N   2.33017648692622      3.74617676660722      1.07107229882374
  C   2.28929302546350      4.24857736753508     -0.08564943056222
  N   1.43116187303869      3.64794476498490     -1.00876081469184
  C   0.94920900599583      2.47857945075850     -0.38945145758595
  N   0.07784212391230      1.66161615808835     -0.80671732613615
  O   3.19051295231559      5.13189743661975     -0.55672390608635
  C   4.35612556406645      4.32374269801977     -0.94693664481608
  O   4.66741313109504      3.34090684395455     -0.04772284296854
  C   4.12523241890615      2.03798039484491     -0.21220351015496
  C   4.87297839231624      1.22270099286149     -0.99337622632817
  N   4.49144437061401     -0.10000012524441     -1.20348870279627
  C   3.62135589727983     -0.77931364831875     -0.31654696181291
  N   3.55727539586003     -2.07763394551889     -0.29420051403926
  H   1.24282399976888      1.99560656002639      1.72805878361528
  H   1.57112568398154      3.72769134427406     -2.00376737032769
  H   -0.25995142268136      1.92330520559114     -1.73232361304066
  H   5.17105364073877      5.04253170643554     -0.98496813907256
  H   4.14429889490917      3.89581861047578     -1.93347978373623
  H   5.82305397565774      1.54010427285640     -1.40063995725563
  H   5.15158304261061     -0.69540466477542     -1.67264290388653
  H   4.20558323775444     -2.46961361017254     -0.97387178530574
