26
Coordinates from ORCA-job 3155optt
  Br  1.96240947301873      0.17895627323430     -2.54458911834730
  C   3.15768637289119      0.01066725670496     -1.07546955468615
  C   2.77053307550689     -0.86099566026313     -0.03502773702542
  C   2.18541319889617     -2.23099429233052     -0.17122027032094
  N   3.21567008486459     -3.19010804268133     -0.70267753286085
  C   4.24020715005957     -3.23771759610600      0.25121615315384
  N   5.40082739361801     -3.74595081609588      0.18939358252541
  C   3.70835653517221     -2.43764027265821      1.43335370520862
  C   2.19092073476017     -2.69125611765760      1.29748529837405
  N   1.77464569918048     -4.05613234099604      1.47362394012582
  C   1.61297167482382     -4.63620958968061      2.69617978375809
  N   1.67554322594550     -4.10977954311364      3.85379375527701
  N   3.77187401488330     -1.04297207813238      0.98550734158622
  C   4.93263657906845     -0.32586259444214      0.91852165743873
  N   5.19549939665769      0.60320692368889      0.08682974476985
  C   4.29239271361937      0.85175677834477     -1.02270778397411
  O   4.59684859342413      1.72544393561130     -1.83143621791315
  H   1.25033210397023     -2.30874204505062     -0.71576826599601
  H   3.51686017841177     -3.00612520303204     -1.65273516919722
  H   5.57489969828757     -4.14872972428450     -0.73175430697333
  H   4.20258797335976     -2.62547836682226      2.38206957346518
  H   1.60281843380472     -2.02118873688854      1.92148747680814
  H   1.90148028995575     -4.65848955349814      0.67534462388308
  H   1.37273739066121     -5.69740662842443      2.62697118609676
  H   1.91907490325122     -3.12135519400549      3.80466792814610
  H   5.66077311190741     -0.58489677142064      1.68794020667759
