18
Coordinates from ORCA-job 315opt
  C   1.49547602065919      0.14247177406102      0.89309650588044
  C   2.46801748207563     -0.06418265493177     -0.25372505613050
  C   2.37925131859157     -1.43636924942892     -0.93648557317346
  C   2.86536515783886     -1.17656267452855     -2.34622279782813
  C   4.08819240192426     -0.35410297110702     -2.50326877352750
  N   2.77048164784394      0.25395374749239     -2.65582269343061
  C   2.28333123753752      0.90874838183725     -1.42809931748666
  H   1.62121713164952      1.13010907105377      1.35049454482157
  H   1.65191947129837     -0.60667872043270      1.67586069098563
  H   0.45843067395313      0.05594149732288      0.55505410552456
  H   3.47772606514973      0.05717885992080      0.14832177351975
  H   1.33562129450669     -1.76246931974834     -0.97029730482727
  H   2.95745208581911     -2.19838902163369     -0.40734751449972
  H   2.58238155510564     -1.85414919583817     -3.14316980943018
  H   4.66843942108422     -0.12777004310433     -1.61640456707487
  H   4.65934732740955     -0.41882085177526     -3.42218692443754
  H   2.80011222406964      1.86111836563089     -1.27079929887347
  H   1.21923748348337      1.11297300520978     -1.57499799001201
