25
Coordinates from ORCA-job 3160optt
  Br  1.06520348398663     -0.04150576280611     -0.04084923769299
  C   2.98040019004403     -0.09778335846908      0.01954135869139
  C   3.64298206614598     -1.28967580524294     -0.09955816792899
  C   3.09050553508506     -2.68732721601522     -0.09017654991765
  N   3.69301631842260     -3.48485325486233     -1.15764338400304
  C   5.06575126979840     -3.43403989843922     -1.27154511717872
  N   5.77967759282950     -3.90579860027577     -2.21638708685692
  C   5.65816511857556     -2.69638690790091     -0.09951013500381
  C   5.13634119916149     -3.19501669545520      1.25080065406188
  O   5.79735141630007     -3.21944542876066      2.29399382155041
  C   3.59814668002876     -3.28309927619624      1.25333658969423
  C   3.12471642920714     -4.65427878646824      1.42769160608816
  N   2.72802160155498     -5.72443207504990      1.55572249517346
  C   5.06131236526669     -1.31543214427506     -0.04771608820641
  C   5.76013145203149     -0.11419351395424      0.18959543809165
  C   5.05659493944901      1.06834727852198      0.30330726353243
  C   3.66088576996499      1.11629079525394      0.19711497606966
  H   2.00823072094129     -2.73631630429172     -0.17053699998907
  H   3.15210568093628     -3.64200118214970     -1.99205819083263
  H   5.19324180212478     -4.34629022585257     -2.92680369420567
  H   6.74257876739904     -2.70623052597612     -0.13197878360933
  H   3.21430235436137     -2.67889569496766      2.08521447907372
  H   6.83991215306558     -0.12374015005798      0.26631254269037
  H   5.59652656956504      1.99436346082765      0.46456364573921
  H   3.11689852375420      2.04574127286335      0.27056856496866
