20
Coordinates from ORCA-job 3165optt
  Br  1.15430042119684     -0.37470594830253     -0.02231769940326
  C   3.03503979789692     -0.15943141925160     -0.03653602550129
  C   3.59725445933621      1.14386517934744     -0.06433619111558
  C   3.15055018705084      2.47407024552347     -0.10415068358181
  N   2.04954636511622      3.23738275616844     -0.03984647786875
  C   2.57507929434551      4.48460741588255     -0.03851706262864
  N   3.89248350848883      4.60637079015483     -0.09799922309786
  N   4.24721347431625      3.30936971338558     -0.18292036575126
  C   5.51633666818817      2.63761548754157     -0.10645577201086
  C   6.39779502938523      2.93602123967603     -1.24642023520606
  N   7.09462675917976      3.16633960158065     -2.12588183770813
  C   5.03658936793626      1.17180825514451     -0.08419890153663
  N   5.84309053903677      0.16592743571712     -0.06377928399439
  C   5.26706167607926     -1.07168413846187     -0.02827601033070
  C   3.87569233966303     -1.24459822369368     -0.01868667915460
  C   1.75067308219219      5.66004115094143      0.02604485968586
  N   1.08929360138612      6.59570375539744      0.07918358083963
  H   6.05690750512143      2.88900092442043      0.81376483813927
  H   5.93302811978315     -1.92253899868553     -0.01716811262490
  H   3.46143780430093     -2.24416522248629      0.00249728284994
