25
Coordinates from ORCA-job 3168optt
  Br  0.77782512515860      0.39896145902833      0.53150751393379
  C   3.14188378161930      0.08343293835915     -0.32649819586801
  C   3.66665883704542     -1.16228816273128     -0.13172411780669
  C   2.81697191482999     -2.38181761519403     -0.07433140486278
  N   2.26001126817808     -2.68306493867486      1.24509275605449
  C   2.10642727071909     -4.04534660802803      1.39730092910446
  N   1.49075424177566     -4.71883951727612      2.28487539485353
  N   2.81125893987078     -4.65542679986469      0.35035402696594
  C   3.62138218403960     -3.65592700107051     -0.30957943956125
  C   5.03430026185897     -3.61198235103573      0.27368622170776
  O   5.59857162974247     -4.60637715212167      0.62837807962124
  O   5.69137836087865     -2.43557005806315      0.31750921865445
  C   5.06097264789072     -1.22282584408482      0.08721838790069
  C   5.86517273550701     -0.12619071232154      0.10064123336901
  C   5.30453038718032      1.18523778378301     -0.09871040946910
  N   5.89216898042644      2.33205971313027     -0.12186894134179
  N   3.91813381820911      1.17046656173020     -0.30026679173759
  H   2.01474770381260     -2.30245656112890     -0.81321543300444
  H   1.54612671160918     -2.04660173226349      1.57920227800923
  H   1.03173853656003     -4.09680471936229      2.94330960728462
  H   3.26393741334248     -5.52261826321905      0.60217287808592
  H   3.73899868947189     -3.85939534287422     -1.37687724372229
  H   6.92600389925501     -0.23079010911951      0.27468358748049
  H   6.88770656014148      2.21081040669982      0.03479672925463
  H   3.49333810087702      2.08135462570318     -0.41565686490634
