20
Coordinates from ORCA-job 3169optt
  Br  1.06738740776100      0.15718860662016      0.93447359652165
  C   2.85492050988557      0.15628837680751      0.30991846723595
  C   3.53192630794395      1.35055089923137      0.04092165735721
  C   2.90402680375825      2.63969930517707      0.01001240404940
  N   1.64056001608459      2.88950069201472     -0.29052579845813
  C   1.49323269724092      4.26055516800763     -0.12322075309323
  N   0.42239806336718      4.93666689786259     -0.36468084670790
  N   2.67040074095034      4.87895219388163      0.35008282696443
  C   3.52667134838404      3.91698461352708      0.40075276255554
  N   4.82906651023653      4.13179914104524      0.86522029901940
  C   5.75441038953486      3.43370242736789      0.39085086477387
  O   5.62405273898740      2.48027155811215     -0.58334085830382
  C   4.95360876158080      1.30319038553959     -0.25251851050252
  C   5.70035358850799      0.19578949786819     -0.35240471508334
  S   5.10951891896213     -1.40439293426499     -0.17047839669396
  C   3.38133966648528     -1.18179122509483      0.26768423453417
  O   2.78754994708346     -2.21322069305831      0.50754356383717
  H   -0.27972236904394      4.26667911073870     -0.67938580579560
  H   6.78704927065408      3.58874074438691      0.69241567473350
  H   6.74524868163552      0.28584523422970     -0.61632066694381
