25
Coordinates from ORCA-job 3171optt
  Br  1.79903516232072      0.46159243413928      1.99687468831020
  C   3.28747445891339      0.28715311752547      0.79524970651445
  C   3.65016373769679     -0.99716527388942      0.34283073623721
  C   3.05202351264130     -2.31856414267148      0.73921796980021
  N   1.60987863837510     -2.51007327416085      0.58443627914693
  C   1.01739692487005     -2.72270057695073     -0.62692172222781
  N   -0.20192160915509     -2.52228892550003     -0.95523081947642
  N   1.83945122782270     -3.29821305183671     -1.58945723602027
  C   3.18942089987397     -3.51769504435394     -1.50312406939132
  N   3.92592323890655     -3.92726015331021     -2.45752254084786
  C   3.83808171512829     -3.29841276445112     -0.14047060167612
  N   5.13919587993687     -2.66225600589982     -0.29002061207079
  C   4.88839392408945     -1.25557705291631     -0.28014975418674
  C   5.76215356038872     -0.31138395389374     -0.71115263209941
  S   5.39027260428773      1.39269077865099     -0.59391908858260
  C   3.92903504237057      1.50116263784042      0.50712986204093
  O   3.63979686799386      2.63632252475589      0.86994414606356
  H   3.26096562878194     -2.53671764006381      1.79465191359497
  H   1.06915175712013     -1.91323317737892      1.19382549338046
  H   -0.70998203241133     -2.07720520141291     -0.19754812202577
  H   1.37619614273470     -3.43188435989889     -2.47604047519812
  H   3.39950755813092     -4.04563243138806     -3.32119419956370
  H   3.92822322036833     -4.27926765909770      0.33238078761448
  H   5.58214125981813     -2.97480146780326     -1.14751591369394
  H   6.73202067899615     -0.55758933603414     -1.12027379564250
