19
Coordinates from ORCA-job 3173optt
  Br  0.96791665879524      0.07553564117717      1.09104667925052
  C   2.75042576200863      0.18469876258163      0.48076003090910
  C   3.36975707068392      1.31686375614651      0.07008927444019
  C   2.74802319901175      2.61113535387380     -0.07770708808767
  N   1.45057495968952      2.81590494408537     -0.31728661252100
  C   1.28351041448517      4.16897689420261     -0.36654669513951
  N   0.24215061921844      4.87149359158040     -0.58641464558799
  O   2.48562969782068      4.81812468141236     -0.13940050505126
  C   3.43789999623450      3.86787609400767      0.04000221356482
  N   4.63271802400039      4.27121658367984      0.32920557115444
  C   5.72090688710432      3.44972851841011      0.38274265036181
  O   6.76756864216918      3.79737492531871      0.90801022014274
  C   5.72895162419169      2.12780055238397     -0.30717119800548
  C   4.76296339997782      1.20480530626868     -0.37546839320624
  N   5.17474056511135      0.00375909978205     -1.06327888483193
  N   4.74803633328911     -1.10896321688994     -0.80698511000820
  S   3.54033047905864     -1.35618446460935      0.44266783759978
  H   -0.52969303263732      4.22434727527390     -0.72608337980359
  H   6.68658869978691      1.86250570131448     -0.74018196518053
