22
Coordinates from ORCA-job 3174optt
  Br  0.95421514689551      0.80375529137439      0.62900152077816
  C   2.74655699709305      0.33279768303146      0.21203611761683
  C   3.05949668327649     -0.99900780852021     -0.05416239809628
  C   2.51585996029556     -2.38819808425261      0.04472183302914
  N   1.69175928049106     -2.80426461195368     -1.11452039007343
  C   2.33113355533499     -3.71825032344656     -1.70761439068260
  O   3.51657765472091     -4.15355338838774     -1.21731543659397
  C   3.80096314430845     -3.32929157097070     -0.05678871688687
  C   4.94857960830347     -2.38874646460621     -0.23090768320641
  C   6.31063824136529     -2.16150517427696     -0.19839889661680
  N   6.58811405769726     -0.81967378586702     -0.18788894782657
  C   5.39938817860035     -0.19611181011717     -0.17764283421620
  N   5.06621463324743      1.10829223199771     -0.03313592776415
  C   3.73453155145391      1.31359169121278      0.17370958223445
  N   4.42672584564683     -1.13461777532546     -0.25420335527307
  C   1.89899227274622     -4.36984349647671     -2.91363868208396
  C   1.54065237442300     -4.92451358603319     -3.91211647126483
  H   1.92176078885965     -2.56364771514921      0.94663537190560
  H   3.90851512523857     -4.01691921030746      0.78040991006686
  H   7.10593868975763     -2.89036125993881     -0.18975859686612
  H   3.43286983693098      2.34219306870993      0.33498339895710
  H   1.21751637331328     -5.40712390069652     -4.80240500713688
