25
Coordinates from ORCA-job 3179optt
  Br  1.08138265211308     -0.18614188899560     -0.66555020934902
  C   2.90259584681443     -0.05046894868641     -0.03973502282933
  C   3.60323817714341     -1.22758955984429      0.33431513399155
  C   2.84589944628588     -2.47756767917365      0.66782120505301
  N   2.92519893839686     -3.00157631664594      2.07687550813731
  C   2.59292521409584     -4.20907347102186      1.97378938508901
  O   2.39800521890789     -4.74048769060774      0.73049941517059
  C   3.03981247896221     -3.76926396367824     -0.14098515963182
  C   4.46356518689158     -4.31808137644293     -0.34173733858833
  O   5.44837327314081     -3.37973404448282     -0.65493962223270
  C   5.76538346300741     -2.51716153867856      0.43334984128857
  C   5.02260732968333     -1.21270118217189      0.38712878909158
  C   5.77140848573644     -0.07816346391772      0.35368458863048
  S   5.08233538347370      1.51862706364719      0.43800339917519
  C   3.41484460396480      1.25629711725098     -0.19524970571013
  N   2.78279306672129      2.27953650167693     -0.68024025025126
  H   1.78920314950848     -2.23662127861311      0.55165566440959
  H   2.43154789526010     -4.90178315763288      2.79193480419977
  H   2.48418274667168     -3.72957846042145     -1.07518957190155
  H   4.44649897992818     -5.04763509410927     -1.15353718305483
  H   4.73688564919572     -4.85375425165522      0.57708089197209
  H   6.83732339581296     -2.32437785070136      0.37477901085189
  H   5.56411033284474     -3.04323506199671      1.37559615111918
  H   6.85038364527830     -0.11209467257835      0.28119925402056
  H   3.38849544016082      3.09563026948093     -0.68554897865141
