26
Coordinates from ORCA-job 3180optt
  Br  0.65643710613959      0.63058392216614     -0.65844580295454
  C   3.07768376370583      0.22450369682501      0.18754230669464
  C   3.58778484306457     -1.01530665584947     -0.07978130753047
  C   2.98563463741726     -2.38393903385353     -0.15917727917473
  N   2.77755936771790     -3.04430344308122      1.14379416104473
  C   3.54972265694223     -4.03293652876869      1.16281846238762
  O   4.33570839852018     -4.29585063624592      0.07900187560003
  C   4.14948682757269     -3.19431418527002     -0.79866706157036
  O   5.30083564364909     -2.38021525963736     -0.80806480695640
  C   4.92854244699425     -1.10444056057370     -0.44586618074431
  N   5.78684769032962     -0.12481634996568     -0.50787896571243
  C   5.26443762551306      1.08391746310853     -0.21878141771103
  C   3.93629773807273      1.32644792791659      0.09430000942279
  C   3.40372612869439      2.72295944300322      0.25949143256655
  C   2.68926111535447      2.93649702605369      1.60128465287256
  C   3.61570556537311      2.94936912065965      2.73011216158004
  C   4.40701173633995      2.97247697072529      3.63147086712707
  H   2.05118070679042     -2.38587317540569     -0.71997210911157
  H   3.65676514403792     -4.74207557938645      1.97385667612169
  H   3.99268589331839     -3.59039430345017     -1.79951354175232
  H   5.96205546987617      1.91648290998539     -0.26442608615544
  H   2.66336867298516      2.89174851684779     -0.52644060546887
  H   4.20920267029338      3.45217064576927      0.14523250172334
  H   1.95059677315251      2.14011230365804      1.72477242995217
  H   2.14204372762927      3.88196569149430      1.58374486500199
  H   5.10241765051578      2.97123007327500      4.43459276274724
