26
Coordinates from ORCA-job 3186optt
  Br  1.02173099433477      0.30321912746226      0.50409382562885
  C   2.97902044399858      0.11516677194646      0.33689978115523
  C   3.50578929257283     -1.17388926391089      0.28933873168773
  C   2.74394966618719     -2.43238472732555      0.44260497315317
  N   3.03458295959750     -3.16254002852732      1.69476657912285
  C   3.03907190443871     -4.50541450778706      1.60907595968683
  O   3.17219964931695     -5.30187891307041      2.51865077041458
  C   2.80558704936005     -4.84836902952062      0.14163486573533
  C   2.99270309239371     -3.53565058861612     -0.62087351603961
  O   4.25724591441352     -3.47296236327125     -1.27955175505372
  C   5.39995341795684     -3.53779766438935     -0.52969367598164
  N   6.20018806191661     -4.53210569769250     -0.56887569787279
  N   5.65298487103979     -2.43556830446386      0.21645963835103
  C   4.95953650946976     -1.20402945426208      0.18196196294646
  C   5.64806190537631     -0.00381119562034      0.14982530820146
  C   4.97371895772302      1.19965282568422      0.21157803786754
  N   3.58271311025339      1.25526336813877      0.29240958756480
  H   1.67833230911210     -2.20275958987948      0.41232206739590
  H   3.15244734333622     -2.67946882626367      2.57093499588557
  H   1.78190610527925     -5.21627407291278      0.04501464434175
  H   3.48540061433710     -5.63509503347838     -0.18085129666235
  H   2.28287591953968     -3.41409536075144     -1.43536138814890
  H   5.80087393865711     -5.25522379200846     -1.15710382356246
  H   6.52238495835814     -2.48658342111243      0.72443339784929
  H   6.73105252145349     -0.01100044540742      0.07561751045323
  H   5.48968848957729      2.14860018703972      0.18068851587984
