25
Coordinates from ORCA-job 3189optt
  Br  2.09894972572535      1.44634940612046      2.71062553118553
  C   3.03365737173045      1.18968828510356      1.04074689773388
  C   4.29553361002119      1.88675567557716      0.86571128462635
  C   3.86666214932487      3.28585707809561      0.63480931782354
  N   3.18958703239105      3.55805476475126     -0.44258155654841
  C   2.31360332984890      4.53463721260161     -0.09355632869137
  O   1.21599515451256      4.71691398079994     -0.86941130035461
  C   0.71884063751348      3.42740436225102     -1.32340172122120
  C   0.34292765219529      2.48761486905053     -0.16010401250240
  C   0.78671934534713      1.00559763558692     -0.24476711425771
  C   2.26799087169305      0.70829764750967     -0.07320203974503
  C   2.97551462841875      0.08374712677968     -1.04324433931738
  S   4.69229121978600     -0.19243292969441     -0.92630723506385
  C   5.25210606865094      1.37493390808245     -0.04138165761782
  O   6.33564784997743      1.80363404490299     -0.37392997609696
  C   2.58686222463115      4.95693436743021      1.16571915137856
  O   3.61242402220886      4.16856861798922      1.62801818187843
  H   1.47206900832692      2.96730593867981     -1.96269467863420
  H   -0.15261264765084      3.68506037806338     -1.92339545769694
  H   -0.74458483014659      2.49170460363948     -0.04925308319721
  H   0.73345380525042      2.91246949631666      0.76465222537301
  H   0.46621162936741      0.57861704383171     -1.19973217780742
  H   0.23301714979528      0.47444846379244      0.53534261372529
  H   2.51236106538068     -0.21664652760039     -1.97615123171474
  H   2.16977192570023      5.68348455033900      1.83648870674264
