26
Coordinates from ORCA-job 3194optt
  Br  1.29542253617106     -0.33047701722552     -2.02247017674128
  C   2.75668017123155     -0.37155953478184     -0.82988471679493
  C   3.08985148640946      0.75349611278154     -0.05549193259858
  C   2.64605496797434      2.17211705398303     -0.12503139516831
  N   1.22906782852326      2.47857417641642      0.06414368899694
  C   0.39691049116035      2.27766419637154      1.12019394886664
  O   -0.81272607660612      2.31468301797585      0.96300278331605
  C   0.92803091132906      2.10224370012804      2.53249859396563
  C   2.42285056048734      2.14066003808962      2.79050976112975
  O   3.03839953436782      3.21911828977621      2.10243278402762
  C   3.61193414954167      2.86779955310835      0.88189556040593
  O   4.69055606912050      1.97235912299189      1.07530908430774
  C   4.33025758420022      0.72730035188006      0.59298208567626
  N   5.13558230295255     -0.26612440697571      0.72836455847972
  N   4.58078829600040     -1.45432369649787      0.23206301489389
  C   3.55695308450976     -1.54330306531793     -0.74441580086550
  N   3.36173652357494     -2.62508128317430     -1.43371474058883
  H   2.85712513073461      2.58990659537581     -1.12007052583857
  H   0.70270688866267      2.49355527550249     -0.79873663038023
  H   0.43824938727189      2.90207315579925      3.09219833116937
  H   0.50679866869372      1.16451777404524      2.90116494146534
  H   2.90001258400594      1.19659186169536      2.53013062499549
  H   2.59494625639391      2.31355483546476      3.85398297534845
  H   4.01227380451174      3.80057580345856      0.48785246251905
  H   5.30276747550382     -2.14539604926691      0.10925502361885
  H   4.06176938327348     -3.32452586160399     -1.19416430420652
