24
Coordinates from ORCA-job 3200optt
  Br  1.03684554814707     -0.20929822198642     -0.01899236608234
  C   2.95341609804887     -0.22382590552747     -0.02665010246816
  C   3.63934164659405     -1.43671334467006      0.08241992520643
  C   3.01863187344970     -2.79838168988094      0.30324655972946
  N   3.31606549948787     -3.66840040715915     -0.83768336023028
  C   2.57036537924769     -3.76614115819713     -1.97278061408960
  O   1.56454936637989     -3.13128979931281     -2.19362858184545
  C   4.50776017707208     -4.38064751835274     -0.63376915520411
  O   4.95183994801804     -5.19787591199573     -1.40873622614502
  C   5.09784611934104     -3.85996658949161      0.64535429191657
  C   5.91058029599584     -2.56724373154867      0.35660460534754
  C   5.04017860163039     -1.34598826804483      0.12574843566816
  C   5.63058741558566     -0.09506345243110      0.01325387590817
  C   4.83247098664321      1.02500833556524     -0.13134066330909
  N   3.50181047538277      0.96349943823769     -0.14094139359659
  C   3.83380752159607     -3.48887774485427      1.41998496617703
  O   3.84974992438658     -3.09520316478526      2.61607584124516
  H   1.94939428834560     -2.73843744785111      0.48152831714354
  H   2.98900839741764     -4.50076914596156     -2.67382004798577
  H   5.72840456530125     -4.60512819498957      1.12684114343008
  H   6.58116878830692     -2.70828443054762     -0.49696174076767
  H   6.53612777787541     -2.35456042881410      1.22714982655071
  H   6.70915818193848      0.00377431289353      0.05203025850835
  H   5.26589112380777      2.01381446970576     -0.23393379510712
