20
Coordinates from ORCA-job 3202optt
  Br  1.07045122206970      0.13820228525584      0.05443500000581
  C   2.91477411393784     -0.09098722534553      0.05732876489472
  C   3.60584090905180     -1.28571195059384      0.05591868245377
  C   3.04571974571284     -2.59826552796946      0.05215427716270
  N   1.77307804333488     -3.01738527656335      0.04847055339705
  C   1.81537974281559     -4.38725370311842      0.04545168372659
  O   0.90175760768370     -5.19938689274946      0.04076699954323
  N   3.17520167665228     -4.78617163140207      0.04801755892486
  C   3.96739422841621     -3.67379504233224      0.05179477016924
  C   5.33883318320704     -3.48464946636600      0.05457031305886
  N   5.87142512889279     -2.26090525213014      0.05763900610456
  C   5.05252613956729     -1.21907014172545      0.05829750644315
  N   5.64992158457076      0.02680186473639      0.06123204746328
  C   4.92721379710023      1.07263648367921      0.06215867110909
  O   3.56592305003374      1.12513245460327      0.06070667761713
  C   5.60556567895400      2.38626435497692      0.06513166902129
  O   5.05437131090841      3.45650474035591      0.06604473236963
  H   3.45923295503986     -5.74867719378787      0.04539454674357
  H   6.02680490926274     -4.32352066652410      0.05405923986075
  H   6.70258497278826      2.27423778700041      0.06642729993070
