20
Coordinates from ORCA-job 3204optt
  Br  0.90197586467725     -0.18673317308705      0.31640926553801
  C   2.74638297014127      0.06045693704031      0.14993494679829
  C   3.42480188513942      1.25424215756562      0.09944056139517
  C   2.81245008030865      2.53368734339429      0.34620313885664
  N   1.53399813854303      2.72837550279555      0.65814486781350
  C   1.42923227047486      4.07735084627116      0.98197761903570
  O   0.39861807381155      4.63903600363720      1.31431532373924
  N   2.68575019202893      4.74646006607999      0.87397292858664
  C   3.48366740409526      3.82186423291513      0.48289962237441
  O   4.79793285342434      4.09495189382882      0.26128265257977
  C   5.39402976834463      3.40111021955485     -0.77859328913487
  N   5.78308129207513      4.00798841944536     -1.81414306940733
  N   5.68794837616576      2.07485644736205     -0.56271351867315
  C   4.87283062947642      1.15768477099750     -0.18430764665321
  C   5.44599329749476     -0.17224627343867     -0.06488233328371
  C   4.66530909312459     -1.24585631733819      0.04198615387825
  O   3.32862571346650     -1.16735874121005      0.08829781877462
  H   5.48410640488640      4.97896620097229     -1.75124175656403
  H   6.51809053920035     -0.27048917153760     -0.14049915306579
  H   5.00817515312087     -2.26934736524859      0.08051586741185
