23
Coordinates from ORCA-job 3207optt
  Br  1.14119072773121      0.40628199142691      0.00530966401464
  C   3.09778459770331      0.27831173619589     -0.02994151117298
  C   3.63669167354387     -1.01663527594406     -0.03584228962409
  C   2.83815941513501     -2.27191581672990     -0.00348532230522
  N   2.18005534586891     -2.61473049242912      1.26308291697345
  C   2.13397668878008     -3.95717132560483      1.44380395415805
  O   1.48337304669164     -4.60799688456329      2.21299924501854
  O   2.99833594991079     -4.53589776354517      0.54605661602062
  C   3.70156057121335     -3.53560358647600     -0.14587897730370
  O   4.95008580688890     -3.40799046306816      0.46519953346070
  C   5.72383933187122     -2.39437939288320     -0.15871559519342
  C   5.06920784027246     -1.04980847988199     -0.04950297472761
  C   5.77900801439984      0.11196623653287     -0.04303512250910
  C   5.09872791602761      1.36150931525907     -0.04580670066788
  N   3.70761791219030      1.40399092638361     -0.03907689352241
  C   5.80714975769386      2.57570724011981     -0.06094140579965
  N   6.43307510514491      3.55326239985843     -0.07770139907292
  H   2.08157425847194     -2.27029735436840     -0.79664852941282
  H   1.46331054952384     -2.02910694700830      1.65928962667389
  H   3.82433095722498     -3.84873081794416     -1.18781284098619
  H   5.86602845581826     -2.66587326668824     -1.21701553108107
  H   6.69786394707280     -2.40227545608180      0.32797417255980
  H   6.86305213082085      0.09938347744005     -0.05431063550064
