24
Coordinates from ORCA-job 3209optt
  Br  1.31784647270190     -0.25847462769195     -0.58834156768938
  C   3.18104287875397      0.01729128375087     -0.21308148003887
  C   3.62437833147060      1.31972431535446      0.14635612310516
  C   3.08725345993005      2.63479584514099      0.27261743306394
  N   2.02256833241876      3.35975247550820     -0.10278086498013
  N   2.52292460889746      4.66726949833318     -0.15665894757750
  C   3.82828251701743      4.73863861918604      0.30105732195603
  C   4.17008433014999      3.48441984978117      0.62671854180721
  C   5.48372577545505      2.80933060305221      0.68238823033434
  C   6.37185914523188      3.59274175372715     -0.30171141979293
  C   6.27161539084624      5.10014559153056     -0.05385665216492
  O   7.25768420289263      5.79286687423247      0.01326990551473
  C   4.87976258528050      5.76858130929997      0.06470435603921
  C   5.05667068200009      1.37881056588828      0.32877715124788
  N   5.87060330064044      0.37400219738645      0.23785978285032
  C   5.28430542769990     -0.83012033192969     -0.07242910506290
  N   3.97767318087280     -1.00373976521459     -0.30605991105399
  H   1.84147096063177      5.39941500939768     -0.03713245133308
  H   5.94873317857624      2.80298447109362      1.67197189737412
  H   5.98981331923539      3.40432575561586     -1.31144820542976
  H   7.42301003988930      3.31389122129817     -0.26666789340398
  H   4.70677496096340      6.28977827623884     -0.88357082889407
  H   4.96911910784158      6.53949632197505      0.83402196939234
  H   5.92779781060255     -1.69392711295503     -0.15300338526380
