20
Coordinates from ORCA-job 3217optt
  Br  1.16646775493649     -0.21614919519160      1.06956366995297
  C   2.95265423900471      0.01038275044111      0.50962798426164
  C   3.55790523759661      1.17536396731291      0.22467026906427
  C   2.87852417999385      2.45309615335726      0.02364688888593
  N   1.60415842889066      2.51648353522656     -0.30496870577482
  N   1.29512530679789      3.82904510087130     -0.42829338758493
  C   2.35195439030242      4.68682660679412     -0.20144708083097
  O   2.30361975833167      5.90415827095431     -0.25710582886878
  C   3.46164123706957      3.75752860291516      0.08982660997334
  N   4.68871464906661      4.19245146512999      0.33759947654230
  C   5.72022555437310      3.36061684665800      0.43101337418344
  N   5.91138421009109      2.07180843556281      0.22857820856474
  C   5.03157183535941      1.06261437588264      0.06134169217834
  N   5.56183330331598     -0.11069204278208     -0.18737912335110
  C   4.81046231279904     -1.24054016266489     -0.16114633097923
  N   5.13053970786600     -2.39783966993202     -0.56621180568304
  O   3.55965207706431     -1.17818341754707      0.46524008135573
  H   0.36138676047043      4.09822177938209     -0.67976112448352
  H   6.64339267044875      3.87778212229911      0.69118076362788
  H   6.07378638622133     -2.33297552466973     -0.93897563103420
