22
Coordinates from ORCA-job 3218optt
  Br  1.04745421620047     -0.02792742287632      0.67056841580032
  C   2.83972236027475     -0.00493500533655      0.06871844194184
  C   3.56538265211272      1.17584340714471     -0.14216439219793
  C   2.92986286319148      2.46729750306582     -0.29565361063515
  N   1.69061620911556      2.63328538685997     -0.77914442174994
  N   1.46996534999066      3.92326785294813     -0.65427786809276
  N   2.43298328151376      4.64843795492895     -0.14226957459912
  C   3.39629520742846      3.75542353048111      0.08761455951765
  C   4.67447620526564      4.11859682441913      0.63162678028380
  C   5.77658476262662      3.37788778146768      0.47289381797822
  C   5.94526848766311      2.16827275890481     -0.36873677025238
  N   6.99023149179870      2.04024233524293     -1.09356262538366
  C   4.98060868113231      1.02614426465211     -0.27874485552284
  N   5.60656997416579     -0.12086444052426     -0.32441527523095
  O   4.81943442566399     -1.27524321272272     -0.30174563900160
  C   3.48453160400934     -1.27750189241138      0.04255008544123
  N   2.93305519295452     -2.40835620341054      0.27262017373303
  H   0.59561883715518      4.33083730217699     -0.93626942475721
  H   4.72977149976779      5.06149127363956      1.16285705909233
  H   6.70795044993529      3.74744549355184      0.89132348201579
  H   7.58571034438949      2.86215127550086     -0.97748881021250
  H   3.64290590364414     -3.13279676770295      0.18270045183182
