23
Coordinates from ORCA-job 3221optt
  Br  1.28389809737976     -0.22120204582935     -0.71228880524176
  C   3.00431270362454      0.04471870736001      0.25688644512025
  C   3.67957109086638      1.26752672361659      0.10124964016280
  C   3.06084236866375      2.56633862026569      0.09535325600207
  N   1.80847763846722      2.95550536967973      0.31627150422010
  N   1.84776906510183      4.26902173218932      0.13076326703450
  N   3.02768859261343      4.79147063113229     -0.18184925799510
  C   3.80173562423005      3.72871891613734     -0.21322457091604
  N   5.16453524965054      3.68975377539220     -0.49317794091075
  C   5.89019617046431      2.51630594509366      0.00158025326472
  C   5.07966804935651      1.23831127814540     -0.04554286379542
  C   5.75520068524609      0.04530915717608     -0.13611638601872
  C   5.05449053417640     -1.20172341467827     -0.02489600937573
  N   5.50762825549753     -2.39377059669865     -0.11625670199171
  O   3.70632973623966     -1.12141134154225      0.26615249916400
  C   5.81053561490508      4.69888659522162     -1.12699226418563
  O   7.00839804916485      4.74140851008463     -1.31641537893128
  H   1.02509370371518      4.83740585494647      0.20592226702369
  H   6.20354642237920      2.70923347582250      1.03472889392636
  H   6.79072609674499      2.42356912970516     -0.60116037922923
  H   6.82624786959517      0.01110161830795     -0.28169640365824
  H   6.50433298005919     -2.34215579308192     -0.30827031992883
  H   5.12177540185821      5.48767715155374     -1.46102074374005
