23
Coordinates from ORCA-job 3224optt
  Br  1.57569647053664      0.20365400774962     -1.12955989228526
  C   3.08279515264471      0.27845159627531      0.11035393653624
  C   3.68103855259023      1.52455322741117      0.37189396956991
  C   2.91713864955533      2.77178837374458      0.37325175216304
  N   1.72827623413502      2.87811627108111      0.90322962479340
  O   1.30182355762694      4.17016728117979      0.65105047825483
  C   2.25556664919103      4.81239168502488     -0.02550707017101
  C   3.31598749974979      4.01041566892315     -0.24318177846024
  C   4.56016352186653      4.30976841578968     -1.01406169926345
  O   5.67891035659026      4.66241805939003     -0.21379364680348
  C   6.35002963269362      3.55827745543445      0.32204543117058
  O   5.50597671370769      2.79657710278651      1.13805778770252
  C   5.05790952944809      1.59486701155940      0.61356311680317
  N   5.99455275740775      0.68927859916900      0.43974408121696
  C   5.70517673288531     -0.57445585019028      0.04547481155605
  N   6.53928792592380     -1.45616614698724     -0.35835600484895
  S   4.00679220005128     -1.18129467704395      0.20393894998645
  H   2.04366219186081      5.83501449063327     -0.29593097850956
  H   4.38306217872625      5.16249736828716     -1.66994623117988
  H   4.81573213568711      3.44260557369216     -1.63661292004084
  H   7.14997078969866      3.96783570577709      0.93617894458836
  H   6.75550722184758      2.91973693138188     -0.47072804791577
  H   7.46894334557549     -1.03549815106880     -0.32910461486307
