17
Coordinates from ORCA-job 322opt
  C   0.81041636908229     -0.00839224023517     -0.51504629430617
  C   2.11865276585310     -0.07417494989495      0.23024152067281
  C   2.59069066481684     -1.39151018990142      0.91802284914103
  C   3.96268544513488     -0.63656464213384      0.88471043083892
  C   3.49468657046912     -0.13562413389347     -0.51917912835090
  C   3.71331443045215      0.60299140999088      1.72948260330283
  C   2.36985738477563      0.93149295599471      1.34731062875292
  H   -0.02100962320905     -0.14056092244781      0.18475753314347
  H   0.74261383348999     -0.77932938545364     -1.28974142393749
  H   0.68998119834282      0.96871563939224     -0.99440289632078
  H   2.54812049595158     -2.26323712534477      0.25319503786782
  H   2.15925671032976     -1.60200464910749      1.89878980793077
  H   4.90429731071796     -1.17583705809745      1.00671909357209
  H   3.91751920803176      0.81053279892185     -0.86236844777453
  H   3.52768055675891     -0.90798737285692     -1.29771859499757
  H   4.16184857789369      0.72268533810475      2.71116159857507
  H   1.94638810110846      1.93180452696251      1.28406568188971
