24
Coordinates from ORCA-job 3230optt
  Br  0.91344646925049      0.32980499656036      0.96072888319679
  C   2.89289651124546      0.05479463462879     -0.27574939414158
  C   3.57149560920365     -1.15375768630972     -0.23501816374176
  C   2.92704518906144     -2.44743503402442     -0.28425539367330
  N   1.75140484177684     -2.80827103020365     -0.70514176840781
  O   1.68328308851451     -4.16068475305675     -0.49947804823165
  N   2.83317241196511     -4.64316344633241      0.03817367279185
  C   3.60316868775618     -3.62018294475719      0.18187944918336
  C   4.99303212851265     -3.56229680673470      0.70435006228094
  C   5.72451256221026     -2.47782298939282     -0.09366565640179
  C   7.17293480500951     -2.37132842634021      0.29763770839773
  O   7.68009490020309     -2.97492740586327      1.20453815444293
  C   4.99146555623877     -1.13402293599974     -0.05869237685836
  C   5.66205834900004      0.04497719672648      0.08712524825064
  C   4.96987564446470      1.31230571188668      0.04184561574964
  N   5.45803590213631      2.49864237907609      0.16096925568251
  N   3.59996514849945      1.19356235975827     -0.17565808143222
  H   5.49816003355670     -4.52279823104009      0.61544197796343
  H   4.98865958902605     -3.28586112219266      1.76137636732500
  H   5.73409426881082     -2.78167316560766     -1.15173417886986
  H   7.78744428802919     -1.70763184841956     -0.33853988997874
  H   6.73031522624956      0.09252910891673      0.24257381670897
  H   6.46042988095255      2.44145832142364      0.31316043861571
  H   3.09000890832646      2.06778311729788     -0.15686769885243
