20
Coordinates from ORCA-job 3231optt
  Br  1.13177064657985      5.73005539242282     -0.80006819934239
  C   2.83872925840680      5.57896130752765      0.11932546891420
  C   3.66639002842727      4.43220878854661     -0.10502470296249
  C   3.11685756781165      3.08004049012035      0.07606065126230
  N   1.87456502154394      2.95105273206568      0.45970256990134
  O   1.62107048445901      1.62988052921130      0.59601008904948
  N   2.71557205967366      0.90036482066610      0.32422122479530
  C   3.65828145222305      1.72495991815782     -0.00246543804198
  C   5.00553237109975      1.11828698035239     -0.30236203167810
  N   6.05463146582215      1.67905304753420      0.55308659307418
  C   6.29960727727144      2.88426305929829      0.29773148882232
  O   5.71461843451893      3.50730297204697     -0.75492346885003
  C   4.99551056858966      4.66088319031029     -0.42942538299019
  N   5.71817686145852      5.75531680751520     -0.51576855134909
  C   5.26451315665538      6.95894743315509     -0.12090861476383
  O   5.89149725621392      7.99319428047036     -0.11325074448382
  S   3.54669402931006      7.09846617902880      0.50632371411720
  H   5.24671927402551      1.25297118137725     -1.35863529992538
  H   4.92106306927037      0.05412945452347     -0.09711104778656
  H   6.98819971663902      3.48866143566931      0.88348168223754
