19
Coordinates from ORCA-job 3234optt
  Br  1.20603008289583     -0.34014046145247      0.08835469319275
  C   3.04681090537089      0.00067148863601      0.09440382578889
  C   3.61197297948619      1.22525039278156      0.09809431614895
  C   2.96282365287404      2.53353839053346      0.09956385457120
  N   1.66578581112820      2.72420743238234      0.09929543688415
  S   1.34302780148954      4.36796313003326      0.10152561606840
  C   3.04446257703945      4.91619760834119      0.10335932541860
  O   3.41635711426994      6.07273675138643      0.10563967692602
  C   3.81448952246914      3.68037550724539      0.10188437116282
  N   5.14245204185762      3.68784032103743      0.10332167082669
  N   5.68701689920846      2.45002539848742      0.10310717898252
  C   5.06805237742989      1.25499146311031      0.10148505435064
  C   5.75745957310757      0.05709828637037      0.10287290435883
  Br  7.64945885681797      0.06401803635452      0.11003772634607
  C   5.10927884064520     -1.21837734573702      0.09899942808853
  N   5.57659932817094     -2.39833702972234      0.09887966429123
  O   3.72264597579136     -1.16183542595651      0.09430521272743
  H   6.69480472417822      2.45496009395741      0.10477341268382
  H   6.59047093576952     -2.36918403778879      0.10209663118245
