24
Coordinates from ORCA-job 3237optt
  Br  0.94681189855748      0.13035032107585     -0.28837966213758
  C   2.85537031994488      0.00418743993724     -0.06285001367941
  C   3.50351325267145     -1.27212632200569     -0.11738511923217
  C   2.91578462910026     -2.56249500815306     -0.20833175895619
  N   1.63744313257547     -2.91991068995798     -0.44743669351896
  S   1.54603571556596     -4.55767170890544     -0.31449777526791
  N   3.14602216245658     -4.87303067530020      0.04571946342215
  C   3.74138743871580     -3.72089612063483      0.06929143571093
  N   5.08093423078815     -3.56793486720274      0.39462426625141
  C   5.72777204091682     -2.44488231827792     -0.27654002113264
  C   7.18324364087982     -2.36121046044724      0.19028939065795
  C   7.91137126273990     -3.60691556741176     -0.03383459839602
  C   8.48617821543637     -4.64277616733503     -0.21847849733592
  C   4.94117786802603     -1.18217519319298     -0.01933211445687
  C   5.54047089173970      0.03482820410225      0.20466789935835
  C   4.76796132069655      1.19186728174703      0.29300699571571
  N   3.43178603510008      1.14626120356436      0.12986152404922
  H   5.59372973650825     -4.43701605044845      0.31296335357932
  H   5.73409318435517     -2.61836957008360     -1.36759023317715
  H   7.19849314256804     -2.11653872430453      1.25515255344470
  H   7.69316277039732     -1.56149029444359     -0.34775568745380
  H   8.99411425686151     -5.56211321359052     -0.38107181808847
  H   6.61558627676621      0.12249159253536      0.29707462467181
  H   5.20755657663209      2.16456690873349      0.46983248597155
