19
Coordinates from ORCA-job 3243optt
  Br  1.10632444741837     -0.34003514912471      0.55724789806761
  C   2.99918895065007     -0.14156236945554      0.39919227914098
  C   3.80370792138656     -1.22783419659637      0.16291659784507
  C   3.40780602232747     -2.65856846131071      0.16506351249533
  O   3.64632345685017     -3.32900016834627     -1.08376336144119
  C   4.61560758113077     -3.45668401852589     -0.06784575374095
  C   5.80298452789532     -2.50562646091270     -0.18537388473416
  C   6.63019610394445     -2.75913391554440     -1.36571624101254
  C   7.32292510403364     -2.95790287814551     -2.32400102825740
  C   5.16703982969748     -1.12229786550017     -0.13567225228835
  C   5.87937054312146      0.06547858758690     -0.35026057311475
  C   5.35397867406350      1.35405354218348     -0.20004224970798
  O   5.88497500454222      2.44260769223992     -0.36883953856786
  S   3.58042329850478      1.49990869329832      0.38525426835765
  H   2.54933337032290     -3.01542264113414      0.71844108049236
  H   4.76695389535872     -4.45885148523462      0.31664609953482
  H   6.44057264490596     -2.65873247770588      0.69663249147610
  H   7.92363952585460     -3.12037887243802     -3.18510088417188
  H   6.91664909799149      0.02498244466632     -0.66277846037284
