28
Coordinates from ORCA-job 3246optt
  Br  1.12009901417889     -0.21817800899653      1.10833957910124
  C   3.04584138267169     -0.42311657612696      0.90285256545233
  C   3.59034606856650     -1.64302702878559      0.87129522063350
  C   2.83859870764411     -2.90703004645939      1.07127093307367
  O   2.03056258129169     -3.07217202367104      2.23954978424963
  C   3.12991881569295     -3.94945030120996      2.06341411641907
  C   4.22104464590932     -3.90197202006321      3.09533859233767
  N   4.58482626493221     -2.55938912169016      3.44604826152460
  C   5.78981638009241     -2.41118865186269      4.23286869446303
  C   6.44809604298815     -1.05624853864447      4.01108757956544
  C   6.99679211151630     -0.87941167975642      2.58513242943477
  C   5.97137893829909     -0.50910122959042      1.55443439830980
  N   5.38764616840541      0.70068879874225      1.67298950027978
  S   3.94881764789376      1.05157022285235      0.90145765446581
  S   5.34651720561262     -1.67769424792516      0.47676447012607
  O   5.86012124258211     -3.00910517472552      0.75471077606079
  O   5.41484968409698     -1.23697068225166     -0.90047628233540
  H   2.33028416821505     -3.24685518941092      0.17052850035851
  H   2.83947902345852     -4.96246786095588      1.78911062343921
  H   5.09692031287902     -4.38347510399856      2.65457516011769
  H   3.89532028774865     -4.51723284084652      3.95508029971932
  H   3.80284675478577     -2.02329123751399      3.79920567029697
  H   6.48609466168968     -3.18739133036861      3.89983840071169
  H   5.61884133342552     -2.58372335172434      5.30885096633764
  H   7.26668571203703     -0.95022802914857      4.73100316578246
  H   5.73555462527598     -0.25002720697763      4.21042315836206
  H   7.51934444789839     -1.78752427620702      2.27662289922557
  H   7.73335577021207     -0.06898726268336      2.60268288248705
