24
Coordinates from ORCA-job 3247optt
  Br  1.08199340645140      0.38144250740886      0.24722150071960
  C   2.98697672046782      0.28242466915181      0.04325743485272
  C   3.58509513511586     -0.98101734929752     -0.22713341229558
  C   2.60995984344334     -2.06650145016957     -0.55262492370838
  O   1.82758579776838     -2.67274787011913      0.47961799190076
  C   2.58602604422746     -3.53447120601991     -0.34860649165942
  C   3.55277714326118     -4.40233667850729      0.39888252560819
  O   3.44989080856838     -5.60544680100157      0.33022621996250
  C   4.66407944900302     -3.71940553273203      1.14177568482501
  C   5.66479948276973     -3.46529430246938      0.05004928950977
  C   5.72221159401183     -2.34313586508007     -0.66450491846889
  C   4.98545888381102     -1.08346443010071     -0.43599929750228
  C   5.82728276636826      0.00789576300010     -0.42145455910782
  S   5.36897431889298      1.64323900811546     -0.08646519219857
  C   3.60261545140967      1.54788567086104      0.20089113021360
  N   3.00113139825537      2.65032766649829      0.50650983163195
  H   1.96287246470022     -1.78187302690667     -1.38243040756529
  H   1.99631239062375     -4.11885820638644     -1.05190364994058
  H   5.05213952429113     -4.39285427242040      1.90408648007393
  H   4.31683542568299     -2.78058104891383      1.57494718129220
  H   6.30838471256662     -4.29769150606789     -0.21364947477288
  H   6.48507151419271     -2.28722906158529     -1.43681919017660
  H   6.89060286745411     -0.12001093908857     -0.57238418186733
  H   3.66392285666272      3.42070426183074      0.54451042867338
