26
Coordinates from ORCA-job 3254optt
  Br  0.76438335004709     -0.15859711413561     -0.85771809325512
  C   3.00136429639609      0.22443769820960      0.08419920106487
  C   3.82351251609891      1.21900727864949     -0.36104235182926
  C   3.56930408118111      2.64952500422866     -0.73640919934855
  O   4.75676430704404      3.02656489257597     -1.45448585465874
  C   5.83595217912214      2.20767902799490     -1.04183009767340
  C   5.19901748488352      0.95283889841606     -0.49119525024016
  C   5.77056694232253     -0.23632023704579     -0.17167409675415
  C   4.92322015979968     -1.30121640510478      0.31708312434137
  N   5.25430470498862     -2.49528966632242      0.67920419813403
  N   3.56775448960176     -0.96050052964658      0.38527714655987
  C   6.63266801590597      2.93329318797205      0.02957413113755
  O   7.79567172806838      2.70653437511283      0.23816780094473
  C   5.88956209797594      4.03909724862668      0.76737124400241
  N   4.56808820757030      3.69099384117575      1.27601856845022
  C   3.41895864768979      3.51786523778254      0.50178332608965
  N   2.25887195484261      3.91610616344498      0.82872592552116
  H   2.69863415509451      2.79963907855355     -1.37095613599914
  H   6.49589122369129      2.01193055187438     -1.88851386630293
  H   6.82988263216534     -0.42265574277005     -0.28721544834605
  H   6.25755571624394     -2.61342059493906      0.57802875076640
  H   2.95763600975777     -1.71896446003766      0.66262480238288
  H   5.85507346244889      4.89524201125492      0.08063045709481
  H   6.51210707247749      4.30918724913877      1.61794995988379
  H   4.36538256241886      4.16540352850884      2.14240797158961
  H   2.26887200216302      4.42761947648186      1.71199378644414
