23
Coordinates from ORCA-job 3258optt
  Br  1.27853890080016      0.07344760336040     -0.95375235897923
  C   3.04876246450279     -0.11164360621842     -0.24632719313004
  C   3.68329970079028     -1.36736834068607     -0.21116288691840
  C   2.80702827057824     -2.54511069588135     -0.59856825039731
  O   1.87527160991548     -2.82767855245742      0.49657334580740
  C   2.58331189304869     -4.02501596587505      0.82643021462469
  C   3.21797760053383     -4.04826570539289     -0.56220374500851
  C   4.63022216998388     -4.54624425501577     -0.81513186115488
  O   5.53492030776692     -3.46302679212623     -0.85130310084783
  C   5.63276965196678     -2.82053542695416      0.36902274324316
  O   6.22489285852466     -3.33197002756888      1.27661755226635
  C   4.96850052971029     -1.49608628505282      0.36497355687283
  N   5.70567202053810     -0.55688696297525      0.94781611859818
  S   5.16490474732397      0.99747263976197      1.05339207797407
  C   3.57930286067980      1.11431632235052      0.25224508230840
  N   3.00220948119535      2.26200240731630      0.18842569137579
  H   2.25035327783528     -2.28482490464109     -1.49456540430278
  H   1.91142559888962     -4.84357661651556      1.09318471635736
  H   3.30613255232435     -3.85794835093152      1.63320016485861
  H   2.52845457688361     -4.56105668284163     -1.23429257188722
  H   4.70904493601217     -5.02884170236200     -1.78850556816271
  H   4.93527748019095     -5.26570188462491     -0.04646793682314
  H   3.58372651000468      2.97954378533192      0.61939961332521
