23
Coordinates from ORCA-job 3259optt
  Br  8.72672158234051      3.85095404707511      2.97717731135921
  C   8.08515947645802      3.43986913106492      1.19475951268443
  C   8.57158203663915      2.27253447138419      0.56097203123077
  C   9.96591021077251      1.87410416259821      0.58889421817957
  O   10.84750108074507      2.35657254882504     -0.53766059277343
  C   11.33066314068116      1.03902096809307     -0.75979903473333
  C   10.26465011145688      0.43129436436990      0.16279263082864
  N   9.12548073092732     -0.17243057938132     -0.49024802958299
  C   8.11697675061520      0.52496702692656     -1.12032543772200
  N   7.40703950508908      0.07135955750006     -2.08656286038642
  N   7.83653364199050      1.77731955538673     -0.56633528647919
  C   6.84318835876965      2.52035626595037     -1.15218913555833
  N   6.23802515383966      3.52055276934685     -0.64035967204961
  S   6.41610918250023      3.80778158550051      0.98653636932756
  O   6.17537658990111      5.20217690935005      1.22500560635489
  O   5.52495395860265      2.87574033341595      1.63882904806055
  H   10.43008707649598      2.15935354114424      1.53041899138943
  H   12.35559791660225      0.90341741940697     -0.39414203795081
  H   11.27224551635723      0.73843861542143     -1.81061026873910
  H   10.61704370982858     -0.23666371788809      0.94733046781056
  H   9.30306405146234     -1.06510446548205     -0.92247850892210
  H   7.76704936390037     -0.82162468385644     -2.40556488403535
  H   6.57604085402432      2.18601017384771     -2.14744043829296
