24
Coordinates from ORCA-job 3260optt
  Br  1.03079230777330      0.24168134440807      0.54332097232345
  C   2.90926465657955      0.21811425354908      0.26339468503596
  C   3.58383923846098     -0.94223247291117      0.08101557640189
  C   3.06135340055929     -2.33953081027081      0.08087262180021
  O   1.96112297303934     -2.90523063300062      0.84085754596539
  C   2.77212607914584     -4.08905287357187      1.05042667410834
  C   4.00652205232172     -3.20256034263780      0.87685742231297
  O   5.20691738700074     -3.50291287551414      0.23706170055571
  C   5.64047302291257     -2.32111204082035     -0.50294860890039
  C   5.44297572419689     -2.59907402577959     -1.93998453333037
  C   5.27746067944262     -2.78431440939397     -3.11414113989713
  C   4.99697905681745     -0.99470130712735     -0.11017959508079
  C   5.81193096973648      0.15079706353098     -0.10664669795385
  C   5.38353523307234      1.48107128258097      0.07734390135622
  N   6.06897449482045      2.58282880509848      0.11541164901592
  S   3.62302779124206      1.81738215196961      0.29430014462337
  H   2.97866414142031     -2.71415558864985     -0.94914654744567
  H   2.63289390161087     -4.80997851204760      0.23819511388338
  H   2.58554413719394     -4.54883729612589      2.02051448753259
  H   4.19010447708111     -2.70454650724897      1.83329521301195
  H   6.71435799329008     -2.23485236830845     -0.32680107943342
  H   5.11564106789278     -2.92873024235362     -4.15443326283526
  H   6.88036619557705      0.02923236572299     -0.26277945963097
  H   7.05513301881216      2.35971503890192     -0.01680678341950
