21
Coordinates from ORCA-job 3261optt
  Br  1.16215787178796     -0.81671201589319     -1.02544666013192
  C   2.85030874168260     -0.50480845155154     -0.20209045912435
  C   3.54460130469592     -1.53526640318484      0.38589307269177
  C   3.18210187178713     -3.00437430850497      0.70745900215875
  O   2.78961836772342     -3.88316600911131     -0.36749902727426
  C   3.80767374985068     -4.87126518774693     -0.64460614319426
  C   5.00767300832442     -4.42040375321990      0.14501705354418
  C   4.54949354992853     -3.51258122736911      1.03763706551250
  N   5.48344590990615     -2.52136468856292      1.20753767652257
  C   6.58505579497751     -2.82028941603860      0.41571832479294
  S   7.43640962562727     -1.30930860870099      0.05952921224603
  C   5.84129975175216     -0.45683222814672      0.15337789249419
  C   4.88856435400726     -1.32740223416604      0.71497555687603
  C   5.49119315213620      0.65319941064884     -0.61282883191377
  O   6.16348111836447      1.41167649450006     -1.28834871665939
  S   3.63547860762050      1.02665915564741     -0.53359590287827
  C   6.35338996303129     -4.02274153605139     -0.21281674562815
  H   2.39922333414610     -3.07392219725540      1.46681207465563
  H   4.01998028671519     -4.86607096396003     -1.71589844735197
  H   3.41111442998974     -5.85335903056011     -0.36992756591479
  H   7.00273520594543     -4.48766680077227     -0.93789843142344
