26
Coordinates from ORCA-job 3263optt
  Br  1.89151480841896      0.48476913055455      2.19309519992733
  C   3.07265054791502      0.31184513059077      0.70290287294302
  C   3.28843774066306     -0.94202883798893      0.09555006291197
  C   2.67809814995314     -2.26904386093201      0.48466249656376
  O   1.28298865401282     -2.29282833564472      0.73405941464595
  C   0.51673511094152     -1.80910373899687     -0.34568190671205
  C   0.67943569178146     -2.67467800185195     -1.58128050635958
  C   1.63347909717903     -2.25350370964677     -2.66156456690568
  C   2.00310076482273     -3.37103631233265     -1.73152438585735
  C   3.08654098652064     -3.22558709024074     -0.67093093329560
  C   4.37081048654657     -2.61077506848517     -1.23977417923687
  C   4.25483714341117     -1.14028570810581     -0.90014302332908
  N   5.04669949633787     -0.26998688557216     -1.48013916086346
  S   4.90216926272202      1.34179799402033     -1.04891539587958
  C   3.71379652052796      1.50685859173514      0.31249096895444
  O   3.58684749938769      2.64019290451781      0.76009539473017
  H   3.10477044968610     -2.62482220971227      1.42943761287482
  H   0.78390755239399     -0.76707852166885     -0.55297447011813
  H   -0.51743570118394     -1.83036016891991     -0.00324257017108
  H   -0.19794240823461     -3.23100448254779     -1.88619202632765
  H   2.13285487929263     -1.30145766182790     -2.52892108122698
  H   1.39385408942989     -2.50870499138137     -3.68502154408105
  H   1.95944321249912     -4.35953654817965     -2.17322173053558
  H   3.26353789635184     -4.21993466191947     -0.25686813017963
  H   4.47363603321851     -2.76528331345415     -2.31604961116405
  H   5.26323203540476     -3.02342364200947     -0.75884880130807
