23
Coordinates from ORCA-job 3269optt
  Br  1.09152015487765     -0.16497552901641      1.07263546613709
  C   3.14748632516524      0.03212840658003     -0.30280822357967
  C   3.92212901101538      1.16345655146612     -0.11220662505453
  C   3.33113545378310      2.53161383024380      0.13531853417201
  O   4.15584120718024      3.25575621505680      1.04887183996306
  C   5.27964918519462      3.54246599056731      0.26349023116143
  C   6.15301989049823      2.30917410816894      0.09914024790858
  C   5.31453984769675      1.07208576424848     -0.13862353386684
  N   5.96324969061263     -0.07190652658707     -0.33816016565165
  C   5.22293779338816     -1.16558147268446     -0.51421975747762
  C   3.83893268197127     -1.14406857569119     -0.49509281497976
  O   3.10977019826958     -2.32034073424448     -0.71651463657393
  C   3.18172853863480     -3.29641257739393      0.19069530129249
  O   3.94791252239096     -3.37878880213823      1.10254558392882
  O   4.74302413091899      3.94809137621254     -1.00467933840180
  C   3.51823154713103      3.36400877378538     -1.13173463290454
  O   2.82659700128878      3.50920752108123     -2.08762222677876
  H   2.30594094831173      2.47877220567241      0.48902758932748
  H   5.80715824115118      4.39321326855633      0.68968801372931
  H   6.74059051593211      2.16834918038471      1.00913940588546
  H   6.85218025004764      2.45933819484091     -0.72579503999558
  H   5.74939637269392     -2.10171476350407     -0.67112653664390
  H   2.42102849184593     -4.05087240560518     -0.04496868159714
