28
Coordinates from ORCA-job 3273optt
  Br  1.54824402056231     -0.12644320209335     -0.07211424034998
  C   3.46735814183301     -0.10838951425402     -1.06985607171978
  C   4.37412769187680      0.78923657285169     -0.55938071678114
  C   4.27909175334743      2.13311132539152      0.04397237481739
  O   4.49650485867633      1.93701489345930      1.45534261160437
  C   5.37623059334658      2.99887550842571      1.68092647896217
  C   4.62612804287462      4.18534558772877      0.96183347748104
  C   3.50859194243994      3.45752320129770      0.10807729024967
  C   3.27394631952000      4.11000339436735     -1.17040676062792
  C   3.10710030928243      4.66208287372968     -2.22167393137818
  C   6.75668565212585      2.43757220144171      1.20008938997821
  C   6.82523256589860      1.36920145979666      0.03200646529529
  C   5.70524063128062      0.35592687663279     -0.34023183117044
  N   6.09458578442921     -0.88767546492599     -0.50522930813948
  C   5.16277439590777     -1.79505771359902     -0.94595877639488
  N   5.33682098682149     -3.04968185032605     -1.06615981845329
  O   3.91074379881999     -1.34049113587936     -1.36198717475937
  H   5.18415498591496      2.55759555350586     -0.39265113991497
  H   5.44428047807967      3.20360383642500      2.75110987805908
  H   5.27520149150206      4.75529659387835      0.29545983194964
  H   4.19396232359684      4.86971011325874      1.69138100286675
  H   2.57619534006343      3.35400637411637      0.66177156963462
  H   2.94739474344015      5.12486041882416     -3.16478061495678
  H   7.16882916098775      1.95105851518599      2.08616231641154
  H   7.44952164176233      3.24546897468698      0.94479265948219
  H   7.70071716723634      0.75112248134124      0.22738651952495
  H   7.03951318095479      1.90176545733306     -0.90165271946888
  H   6.28882199741855     -3.24264333260092     -0.76722876220183
