24
Coordinates from ORCA-job 3286optt
  Br  1.11762314878503     -0.08513027300099      0.70075366291953
  C   2.82372394407504      0.29938901546762     -0.21145694498900
  C   3.63101562367307      1.31029868599782      0.27922678746801
  C   3.35770965952362      2.72203892973660      0.74045699917178
  O   4.54529412253958      3.03341964203941      1.47879252761807
  C   5.50072574393849      2.61807334951003      0.48128593093203
  C   5.11890063684592      3.53705788261531     -0.69703687925115
  C   3.59940467748114      3.56747918340896     -0.51544971254356
  O   2.78779685244782      4.12586593813844     -1.20272743942073
  C   5.00642226670173      1.22468939161411      0.13898914933841
  C   5.63960374836032      0.08407500088832     -0.34230453764258
  C   7.11160629334904     -0.15442472327566     -0.36050990123649
  C   8.00134408161172      0.87214483107283     -0.99187412002467
  O   7.67543788543145      1.94085192453492     -1.43517271876249
  C   4.81232591054277     -1.02141469161206     -0.71222315666479
  O   5.18612226888148     -2.11752157432789     -1.08424504350029
  O   3.42387422080633     -0.84094130256699     -0.66458051056614
  H   2.44658809668698      2.92542094173375      1.29292577637172
  H   6.51277130264334      2.72061526926253      0.85939422537952
  H   5.41247014577740      3.14582646249880     -1.66761160163742
  H   5.51696209400791      4.54605477771561     -0.57333800899453
  H   7.30903931939550     -1.10516735906509     -0.86803286361937
  H   7.53793889118185     -0.29551808469429      0.64898044099473
  H   9.07429906531234      0.57981678230786     -1.00724206134056
