25
Coordinates from ORCA-job 3288optt
  Br  1.07296984747254      0.48877217845044     -0.92500953036702
  C   2.87444277088657      0.19080559850202     -0.34187199644432
  C   3.33047050828595     -1.07398346516336     -0.09841468168960
  C   2.51128707168994     -2.30171044177239     -0.29619237234926
  O   1.66592671733234     -2.58043239439555      0.83760981837234
  C   1.61772147014525     -3.97240036539561      1.08089865920193
  C   2.37730448056027     -4.64380062164481     -0.07681203535860
  C   3.36853467142136     -3.55053928442840     -0.43882218956978
  O   4.38728343913534     -3.60569141532412      0.52786699567716
  C   5.24783221684096     -2.49358388391088      0.67711108887093
  O   6.35299330811211     -2.73883910233523      1.12239078212276
  C   4.69410745004334     -1.21851453361864      0.34070808240799
  N   5.51149930869261     -0.11900395703156      0.48734300062149
  C   5.00346513602137      1.06006822538723      0.23903045326229
  C   3.68751519823031      1.32047493892517     -0.17469050140435
  C   2.26104448331930     -4.27403080804321      2.42236562381144
  O   2.03236324394828     -5.28114096878691      3.03764500055080
  H   1.87256343999514     -2.19534089034489     -1.17970615964837
  H   0.57841512698334     -4.30825575665784      1.13261657100471
  H   1.69885267398356     -4.84058744616259     -0.90809856360177
  H   2.87002366020001     -5.56778182157001      0.22032831536319
  H   3.78326727930485     -3.64241846107086     -1.44812962478632
  H   5.67848295810417      1.90467210137551      0.37106951769277
  H   3.32636359042511      2.32089374116695     -0.35272054195307
  H   2.94826994886587     -3.49363116615037      2.79348428821264
