25
Coordinates from ORCA-job 3289optt
  Br  0.99444148601771      0.13609673461427     -0.26339644202425
  C   2.89308437303388      0.00790172045944     -0.03728777588726
  C   3.47372465902721     -1.22929531387983      0.04667876739785
  C   2.71296924202308     -2.51038551158471     -0.07686414566986
  O   2.13824857039095     -2.92327200093113      1.16483281827361
  C   2.16977200925013     -4.34383212052542      1.25896249882841
  C   2.76316466105504     -4.85643603237980     -0.05666477818461
  C   3.60225657236999     -3.66762377191401     -0.49364873148215
  O   4.80747727498722     -3.71765985412531      0.24216185599226
  C   5.57142888898818     -2.56968084309089      0.38800077555321
  O   6.73175841678986     -2.72764052698272      0.67729341142022
  C   4.88289701349459     -1.30129602282448      0.22196062623905
  N   5.65222273667077     -0.17578963940739      0.29565929012472
  C   5.06546591504556      0.97824791156484      0.20164826964959
  C   3.66129144589622      1.19740819371271      0.03281772365785
  C   3.16385978594385      2.53551267966595     -0.06119829245973
  O   3.86231594286594      3.55430316508070     -0.02733742260822
  H   1.91676519181569     -2.39537885032431     -0.82113169681834
  H   1.15727833620765     -4.71634215210795      1.43233631122721
  H   2.79895586966762     -4.62179535963261      2.10739182350017
  H   1.98226148253675     -5.04423413321347     -0.79576156179837
  H   3.36649632163525     -5.75388265025109      0.06547846595231
  H   3.81847380703140     -3.64671685309039     -1.56580243225243
  H   5.68832709671063      1.86624947173947      0.25229717315819
  H   2.07206290054477      2.63354175942815     -0.17342653178942
