27
Coordinates from ORCA-job 3292optt
  Br  0.79531191515865      0.55729678198673      1.04501162306843
  C   3.14236264806015     -0.16007971702146      0.25289275008659
  C   4.01128138815171      0.84266081716928      0.13109533026304
  C   3.88230527660880      2.30266486801432      0.39468242586064
  O   4.74903195820482      2.51393452449671      1.52715740554833
  C   5.29682632077278      3.73673278765320      1.10963369048007
  C   6.40662100671138      3.30316392519234      0.09462658983053
  C   6.30027165573771      1.89086206535680     -0.63502180689161
  C   5.43307179419464      0.66556328720221     -0.21458686581391
  C   5.98931288850177     -0.55956477219947     -0.33730176240601
  C   5.30181094986308     -1.83482458441693     -0.19107565941705
  N   5.84157526265068     -2.99497782144174     -0.26658108535092
  S   3.54199869372460     -1.79793799681084      0.06831172921780
  C   3.99575119861893      4.53993663386376      0.75074882591196
  N   3.28647787530298      4.54198593798023     -0.52056117736855
  C   2.94815202137052      3.50789032730572      0.46520804443168
  H   4.42179514325583      2.64626952815661     -0.48431900892693
  H   5.76973510562967      4.24022329071196      1.95506992799274
  H   7.32752577730511      3.28232634238812      0.67961114378599
  H   6.55939660577797      4.05661188301183     -0.68358146488247
  H   7.32373690583188      1.52186047649061     -0.71532253693343
  H   5.98926176919515      2.08997026216124     -1.66688402212519
  H   7.04285065525581     -0.64701553815150     -0.59245649404973
  H   6.84355845573189     -2.89750776297531     -0.43273611991294
  H   3.79472601295274      5.40343486617855      1.37147628965032
  H   3.84361888173331      4.16372624142153     -1.28074834671157
  H   1.94963183369717      3.48579334627541      0.87265057466219
