28
Coordinates from ORCA-job 3303optt
  Br  1.01033121405134      0.10818753182618      0.49955389730013
  C   2.82220344821901      0.11330341127725     -0.10449638083282
  C   3.48974199145967     -1.10454869694275     -0.31948089184267
  C   2.77152854932236     -2.31656717857553     -0.82811800139306
  O   2.29393502517258     -3.21237131819877      0.17657846564443
  C   2.99850466690747     -3.20105137455240      1.39812265883619
  C   4.33506996295503     -3.91842825004119      1.27622714834080
  C   5.16229027234990     -3.56761818928932      0.03080065085874
  C   4.47174240423817     -3.94904299369489     -1.27976451567589
  O   3.53488232241164     -3.02587055153356     -1.78186777285748
  C   5.77988216787393     -2.17113307939408     -0.00334877135468
  N   4.90908700466219     -1.06557086304498     -0.40019925746559
  C   5.57365235174346      0.11236180206224     -0.60685906709654
  O   6.79961034751190      0.18484737669113     -0.64053218755374
  N   4.77892296204015      1.22196810907427     -0.75910112256855
  C   3.44179716519345      1.35990049406612     -0.25830718577208
  O   3.02385596950920      2.50286492433838     -0.05060248191198
  H   1.87204272857556     -2.00153035755191     -1.35630425023191
  H   2.36020187595014     -3.71472679730896      2.11909995300242
  H   3.13698146580636     -2.17159906593416      1.74016024022055
  H   4.14900588598637     -4.99653542174711      1.24198846221845
  H   4.93380030117492     -3.72311397512398      2.17207812530492
  H   6.03269614389964     -4.23236155568872      0.08258673156378
  H   3.99379579550520     -4.92799899306799     -1.14574695151782
  H   5.22631530340993     -4.04610879974369     -2.06410293406122
  H   6.61525193591806     -2.17538808996511     -0.70348451250055
  H   6.21052100348373     -1.95457246279244      0.98332473754546
  H   5.28834973466833      2.09070436485608     -0.81020478619933
