24
Coordinates from ORCA-job 3305optt
  Br  4.30249246428101     -4.37117449705056      5.76658141288600
  C   4.10368801751801     -5.47089866132773      4.23762778990396
  C   4.36473316246899     -4.98513658141065      2.98212389500768
  C   4.87818132260649     -3.63853149867347      2.60107275209713
  O   4.70465737377716     -3.54363884304997      1.21885364806753
  C   4.77667665996505     -4.87487919155716      0.70122636042176
  C   6.25941288055084     -5.28651421001240      0.39877288230103
  C   7.21386340525096     -4.13098922587446      0.33007988374512
  C   7.45306370293324     -3.29372058069637      1.32896230802291
  S   6.71629183140723     -3.40473817470383      2.95085601769941
  O   6.88329765594344     -2.09453595456181      3.53959116730349
  O   7.26673035394763     -4.55202832882203      3.62414542796774
  C   4.21631549442196     -5.71912981638134      1.81013453656925
  C   3.78741574298155     -7.04895954805295      1.70286192308893
  C   3.40148500552604     -7.83977445380306      2.79498480738546
  O   2.98108210308627     -8.98543668431689      2.81626293958210
  S   3.51522750501281     -7.08816027222699      4.50649173847512
  H   4.43613961734580     -2.78029665268936      3.10703213121587
  H   4.19147693675391     -4.88237908854863     -0.21967416085520
  H   6.28787443663668     -5.86170547466909     -0.52627273581787
  H   6.58448896122191     -5.95273410006316      1.20199951077189
  H   7.74721447370825     -3.96141072545806     -0.60030792010113
  H   8.13533135439355     -2.45597732823197      1.26107030076173
  H   3.70385953826115     -7.52725010781797      0.73352338350006
