24
Coordinates from ORCA-job 3307optt
  Br  1.13879807034418     -0.28214355182637     -1.41982270730719
  C   2.92651274675495      0.23763635791653     -0.98858953663207
  C   3.82903237394706     -0.75310742792326     -0.54814991138097
  C   3.47355228267880     -2.16310697951560     -0.23802755661018
  O   2.64984231179602     -2.27700535895244      0.95159741003952
  C   3.08645839235413     -3.39426951165457      1.66144907175264
  C   4.61643256014049     -3.29258514831703      1.57102734996772
  C   5.31552536094058     -4.51837136939215      1.93238024208347
  N   5.84757436593860     -5.49723366119808      2.20778441688794
  C   4.81911485016731     -2.86104549371932      0.10373624380469
  C   5.93231226018216     -1.82467523437823     -0.11052278071537
  C   5.20184463649478     -0.52500263205695     -0.36615561850143
  C   5.80998780791578      0.69079055701801     -0.48129713202711
  S   4.91731139505859      2.14970836319530     -0.82280211070395
  C   3.20602319435992      1.59587486352936     -1.20802615684994
  O   2.46819973489061      2.48698780510344     -1.60583697565043
  H   2.92998902233629     -2.66775877876331     -1.04438947779046
  H   2.75080319361459     -4.33588374096101      1.20307750969722
  H   2.71072702201811     -3.34122907425598      2.68273826522237
  H   4.95039243241624     -2.48922417819022      2.23179691982186
  H   4.96415571066168     -3.75064044657472     -0.50939204499092
  H   6.54597434016230     -2.09050875139662     -0.97462644940856
  H   6.60666387084396     -1.76827385871663      0.74936318443228
  H   6.88077206398279      0.81506725102993     -0.38631215514114
