26
Coordinates from ORCA-job 3310optt
  Br  1.14666652449983      0.13505262170543      0.34817128900216
  C   3.04437226336101      0.01583881793307      0.21404728470500
  C   3.64875618329270     -1.22236946746656     -0.13034390525188
  C   3.06132789837306     -2.59140974484940     -0.09541748301063
  O   3.75679150521250     -3.43368596630879      0.84816178238671
  C   4.80442451744324     -4.20942207422526      0.30076742193913
  C   5.46040091066206     -3.53474614668341     -0.91017486957234
  C   4.33081684415306     -3.39073992269940     -1.95780622693980
  O   3.05657515484144     -3.28641318559309     -1.34143267938050
  C   5.99657681531148     -2.18099422810497     -0.56169265316128
  C   7.24927706798409     -1.62359788214926     -0.53769093689129
  N   7.10380394243406     -0.27244464533819     -0.22594931343644
  C   5.77283423626473      0.00129208133374     -0.05604011215229
  N   5.17716487683448      1.17554707533913      0.35703869066874
  C   3.72648968220848      1.24246445441431      0.37824410357674
  O   3.25231657819182      2.37660387820595      0.54050428083430
  C   5.06640649882065     -1.15135728953754     -0.26025609971717
  H   2.02248882308831     -2.56695818387842      0.22233027841477
  H   4.41944051961181     -5.19070948309914     -0.01329826764309
  H   5.53448306307638     -4.36056270922772      1.09882333467834
  H   6.24681166901853     -4.18772198159181     -1.29751528360139
  H   4.27873793330328     -4.28538276169195     -2.58314349627625
  H   4.51743292400559     -2.52105598209983     -2.59467585480099
  H   8.22163623922127     -2.03713054161409     -0.74562063589447
  H   7.85745112694751      0.36677030685306     -0.05578304708583
  H   5.56651620183848      2.06613296037420      0.08175239860976
