26
Coordinates from ORCA-job 3314optt
  Br  1.11121101107756      0.79006388138622     -0.33473872405744
  C   2.97722393457459      0.43294503305499     -0.23641631557422
  C   3.46220592106748     -0.91209121961960     -0.30759667415597
  C   2.48560507388687     -2.03587024501248     -0.26179610102462
  O   1.85364336979078     -2.14987513934088      1.04367951566367
  C   2.08658173760020     -3.44122079830209      1.54713738974672
  C   3.31690472362908     -3.87972255105734      0.77106821407321
  C   4.59556579825459     -3.30278217852855      1.36803234832543
  O   5.61343403149811     -3.32157810247568      0.39402849354518
  C   5.60419558593026     -2.37404358334236     -0.60354043825414
  N   6.35219517528612     -2.55663186779266     -1.60752145455284
  C   4.86741183619450     -1.09152355313062     -0.40837900473582
  C   5.69258093821756     -0.00050789665773     -0.36689457538037
  N   5.18154667886322      1.26642226987392     -0.15660893674473
  C   3.80135140695161      1.57402616017431     -0.17970801081079
  O   3.48201247655812      2.76737498036358     -0.14318503402738
  O   3.07619666513498     -3.30211194196612     -0.49390706548799
  H   1.68387527960499     -1.90446220725601     -0.99112103816211
  H   1.23914573261921     -4.10850675999657      1.35027188144595
  H   2.25502779591706     -3.38078181408925      2.62572385375054
  H   3.40504418920404     -4.95706637553504      0.62861456398154
  H   4.94413630267085     -3.92411011757230      2.19474878345280
  H   4.41992635275165     -2.28730264088688      1.73190721112720
  H   6.83131535399989     -3.45180553229699     -1.50223110044987
  H   6.75806532947605     -0.08688932932330     -0.51302074969853
  H   5.77459729924054      2.07605152932945     -0.22054703199543
