22
Coordinates from ORCA-job 3321optt
  Br  1.12019934969508      0.22371666459698      0.13261899324133
  C   2.95377871491133     -0.14269309366086     -0.37730524162618
  C   3.57782381176244     -1.33729040196392     -0.03281887900577
  C   3.05835655096736     -2.73356647763210     -0.03499374980852
  O   3.61742124220009     -3.47120538153011     -1.16676904538540
  C   5.02828761790296     -3.39113179695819     -1.19205914752684
  C   5.59050659008953     -4.75129503875447     -1.31132158030523
  N   6.07313204676175     -5.78509417033248     -1.42066937983152
  C   5.52562057526720     -2.69197706187656      0.09546201995886
  O   4.96931404466800     -3.44342542072746      1.18814876234601
  C   3.60339095996966     -3.43666268228979      1.18514427055471
  N   2.90486214856171     -3.98023239759964      2.07745359882890
  C   4.95893375180632     -1.30202271089106      0.06273557821874
  N   5.73936829241783     -0.22963429018137     -0.02230731112943
  C   5.09049649372870      0.96404207522714     -0.15996534499752
  N   5.60933441353271      2.12482443096524     -0.11382033724064
  O   3.70675705363051      0.98659865891708     -0.40999958813546
  H   1.98056338742912     -2.82920266744456     -0.10069876342457
  H   5.36456152585335     -2.81405747697524     -2.05873936732233
  H   6.60664221516388     -2.71454048032608      0.19334066227029
  H   3.50676884991261     -4.38313385990653      2.79578346591466
  H   6.60188036376772      1.99398357934404      0.06078038440592
