26
Coordinates from ORCA-job 3322optt
  Br  1.28097937004998     -0.16833691927975      0.72515586755349
  C   3.08103598588198     -0.17647513581740      0.12845889453773
  C   3.68742263942363      1.00935935004824     -0.37109572071082
  C   3.00686254616322      2.31116180495190     -0.59145115322226
  O   3.41561139354772      2.89812135252818     -1.80507198064991
  C   4.80087305274212      3.16940427095014     -1.88636209163546
  C   5.69929410563552      2.32243774624405     -0.96048288020822
  N   6.13079480317982      3.05787034511887      0.24639601480157
  C   5.50831970134033      3.20174557543388      1.44748304994105
  O   6.13541820135359      3.54527252078424      2.43756883788403
  C   4.00941613773970      2.95282380962324      1.55769774048097
  O   3.25309882288678      3.29838727143015      0.42944640033517
  C   5.06267258042919      0.99769133322758     -0.64549289383616
  C   5.78441001434495     -0.15685748620617     -0.54337243808349
  N   5.12092038618953     -1.33534703070625     -0.20896895415350
  C   3.78230823358572     -1.39881426904437      0.24640104619652
  O   3.37483499776709     -2.48321543578350      0.67366389571904
  H   1.92764115853282      2.20287556972562     -0.67214654691520
  H   4.98237415457345      4.22614824855555     -1.66963840175252
  H   5.08182009851095      2.96804114851304     -2.92228111336685
  H   6.63053044023278      2.14542429460761     -1.50188275779388
  H   7.12653077342163      3.19009626686981      0.34115319158449
  H   3.67515649511876      3.58454841330044      2.38010667436625
  H   3.86538352929167      1.90771613938567      1.84975685502758
  H   6.84863565684012     -0.22068070667302     -0.72164395944381
  H   5.63865472121687     -2.17639847778778     -0.01839757665582
