28
Coordinates from ORCA-job 3323optt
  Br  0.72953910770143     -0.14643067395988     -1.44271618537432
  C   2.66611076352167     -0.02309255413722      0.17063960089387
  C   3.34340347648632      1.16621476582320      0.28804986054621
  C   2.99684592049799      2.63758745566269      0.23055745029548
  O   3.42326733708836      3.15251356478460     -1.04005159528733
  C   4.84569396153724      3.18813349730904     -0.95754213694827
  C   5.09857815057511      2.63972985130002      0.46712124539535
  O   3.95006726804228      3.20131748105013      1.12273817099028
  C   4.73032816530431      1.17296150896781      0.42109881773266
  N   5.51327052425601      0.11522296996177      0.39502935260343
  C   4.86487879038241     -1.06209987171661      0.29882820828482
  C   3.47418097471985     -1.15704304948567      0.20904625082244
  O   2.90165900670663     -2.41050180673665      0.16372142585477
  C   3.08435210642229     -3.10190925370849     -1.05893895692305
  C   4.38517450379997     -3.89490401764851     -1.05881850402029
  N   5.61394749320341     -3.12026609094904     -0.94686603069552
  C   5.71499462008226     -2.31161963187253      0.27058224333376
  H   1.98226270192961      2.95518277347391      0.43912895629664
  H   5.18678487499375      4.22097336038851     -1.05554222212430
  H   5.29232874544120      2.56348907273438     -1.73216962820543
  H   6.02658832464354      2.92685281770931      0.95067745551606
  H   3.04362831677156     -2.39028921228652     -1.89013541870270
  H   2.23426207030111     -3.78049773072775     -1.15971980985275
  H   4.43540282161014     -4.49304721615354     -1.97364511219185
  H   4.36110413913712     -4.59204740443330     -0.21539068361534
  H   5.70660251263565     -2.50997578758331     -1.75227883300787
  H   6.75161908318556     -1.99986557643027      0.40158196418907
  H   5.44512423902313     -2.96058924133607      1.10901411419418
