25
Coordinates from ORCA-job 3324optt
  Br  0.57202947678146      0.10395338046136      0.40503392967802
  C   3.20178038852213      0.19970384874249      0.42110449313226
  C   3.83578767736434      1.39403874397254      0.23407895575338
  C   3.47683827265525      2.83889598844526      0.48667487078265
  O   4.17412627189646      3.26050393254216      1.67347210977987
  C   5.53406801213649      3.35964088990099      1.27826545534055
  C   5.46782941592967      2.93956040513664     -0.22242739469094
  O   4.18798553248117      3.51363652068427     -0.54019985566872
  C   6.55027685388033      3.41375798054164     -1.06030322970289
  C   7.47995722885674      3.77641572670342     -1.72235691627589
  C   5.15049658518025      1.45504472338867     -0.23460483949164
  C   5.86184200006989      0.31692552690815     -0.53079065405838
  C   5.19889660002451     -0.90797903628771     -0.38081186771259
  C   3.88602481235700     -0.96763391243990      0.07923158643322
  C   3.12127627619320     -2.27130979805770      0.20932841207653
  C   3.89916507698387     -3.46588822601847     -0.10690033507670
  N   4.51753692009291     -4.39960436906492     -0.35726619649666
  H   2.43229825687168      3.12178323997362      0.53245195724397
  H   6.16434553647154      2.69004190344464      1.86380978417623
  H   5.87394433309897      4.39293517228244      1.36902135681531
  H   8.29758727165801      4.09793730590280     -2.32082234729802
  H   6.88225664185166      0.35828238679432     -0.89122683336661
  H   5.71905032588489     -1.82453028051708     -0.63773999844186
  H   2.24079805010619     -2.23061130557226     -0.43744238505780
  H   2.72580218265126     -2.36550074786742      1.22241994212674
