25
Coordinates from ORCA-job 3325optt
  Br  0.48681277728305     -0.46316581199066     -1.66110667830556
  C   2.74307664584935      0.08126548279417     -0.50870009273702
  C   3.59361599266447     -0.98738517749119     -0.26624522545514
  C   2.95742418157305     -2.29758438066365      0.14178271379576
  O   2.54587672581693     -2.28397276887761      1.49345752905135
  C   3.70548754895188     -2.51068135533137      2.24440396859594
  C   4.60199364940352     -3.36910813078044      1.27760348879123
  O   3.85983100854785     -3.39438129648329      0.07843715276856
  C   4.83359849388541     -4.72613379069278      1.76668585955058
  C   5.03594478787897     -5.83166124263359      2.17784792611401
  C   5.93674419863345     -2.63093063323307      1.05826332300092
  O   6.79960596155565     -2.65811609328934      1.89325353008347
  C   6.02727926711334     -1.86470269668287     -0.23652761156761
  C   4.97259333999840     -0.77593058951800     -0.39846326389421
  N   5.48679730308234      0.41528904415136     -0.71040802308869
  C   4.64566308061111      1.42675537238687     -0.92406060833058
  C   3.26670814446099      1.31180082358114     -0.85276088029359
  H   2.08810716362459     -2.50461105237647     -0.47788515486800
  H   3.45037756907068     -3.05694268800550      3.14890753562815
  H   4.21461725380897     -1.57704082827331      2.50268378757904
  H   5.21146649858402     -6.81501857199513      2.54132923822216
  H   5.91786461248502     -2.58918508596553     -1.04853286037901
  H   7.00547049329161     -1.39500453923496     -0.28917465495508
  H   5.10901140104143      2.37795379902780     -1.17360296097086
  H   2.62603190078360      2.15649221157755     -1.07618803833586
