23
Coordinates from ORCA-job 3327optt
  Br  1.13239077929736      0.57431398221191     -0.17826676851587
  C   3.02688880622468      0.34485862973431     -0.08715101058929
  C   3.53292080810373     -0.92285154372297     -0.22320459105230
  C   2.67953060614642     -2.14583206082002     -0.49691968849320
  O   2.03933712273762     -2.85227572423080      0.63789517032620
  C   2.88394613970552     -3.97573838418222      0.98329833664001
  C   4.14506724339577     -3.40027314178567      0.36296201317891
  O   3.60074628954360     -3.08842865379813     -0.92439647379045
  C   5.61374581698547     -3.39619048490753      0.10328535522496
  N   6.54350005012631     -4.24415686687453      0.19353163759939
  O   5.87838238172633     -2.13200702745861     -0.31350663299440
  C   5.01264082290445     -1.00570186332467     -0.12646024544280
  C   5.71255976407639      0.16474382477832      0.08751358827184
  N   5.20217941513004      1.37806735268072      0.21975874715393
  C   3.82104543583623      1.48057528419251      0.13019838758721
  C   3.26053071972049      2.77336534042262      0.27079506722496
  N   2.82191647361494      3.83680492106551      0.39378997220045
  H   1.89310948619397     -1.96807501478211     -1.22543537683242
  H   2.51970141758240     -4.89398126690318      0.52073266605380
  H   2.91739033903811     -4.06093116093871      2.06803616443211
  H   4.15507199144054     -2.50378955594793      0.99629906325959
  H   6.14748010879799     -5.14102250153509      0.45796140734760
  H   6.79491798167152      0.08452591612631      0.14828321120975
