26
Coordinates from ORCA-job 3329optt
  Br  1.97227181314421     -0.25522681266454     -2.42893645268132
  C   3.14366776804175     -0.37587574210386     -0.95135446574781
  C   3.14373958780464      0.57870311449868      0.07679909237057
  C   2.40252934644624      1.87096866018483      0.21013882218500
  O   0.99748428098361      1.86445034431730     -0.05406987507237
  C   0.28106482888704      1.09518271030832      0.86847352213621
  C   0.47357910424196      1.74844371808402      2.23411452710545
  O   1.82316407173301      1.70446591739443      2.61129825499505
  C   2.71451364596672      2.30588156327839      1.66093488977400
  C   4.09228057758786      1.72408888495376      1.95197318096433
  C   4.12507227113704      0.50186458471773      1.06915652988630
  N   5.02870363907591     -0.43735036971809      1.18945879971308
  N   4.85142441975204     -1.46902210554262      0.27528937696716
  C   4.08020064739531     -1.45105504236570     -0.90280221847017
  N   4.20785237762081     -2.36388978352513     -1.81533811013050
  C   -0.31689708843574      1.08018441440216      3.27867642490917
  N   -0.97828670212716      0.56970331863041      4.06245063615534
  H   2.77681888466655      2.63189501970115     -0.48669201742002
  H   0.64461060484452      0.06217331007255      0.90147868589394
  H   -0.76746065357763      1.11052824022429      0.57141481312353
  H   0.12145743026239      2.78820640951241      2.16531024637322
  H   2.64632007919674      3.39350901118511      1.77803373113360
  H   4.20973216604905      1.49544116049655      3.01231223906834
  H   4.87439201284750      2.43533779559640      1.66662558886095
  H   5.64597856432908     -2.08531003075258      0.24534220423143
  H   4.93578632212650     -3.02429829088598     -1.54908842632451
