22
Coordinates from ORCA-job 3336optt
  Br  1.04711541441052     -0.51279393625395     -0.22022342920351
  C   2.92669989960012     -0.35809305063604     -0.11538502475577
  C   3.65613949991322     -1.38168335654849      0.39962264704763
  C   3.20577088437433     -2.70486462409172      1.02820671427405
  O   2.53726741114127     -3.63532231191450      0.15030121363981
  C   3.38502367789622     -4.65715736840707     -0.22751839273935
  N   3.02548426068622     -5.60279288247058     -0.98153690690313
  C   4.69435220522243     -4.34184911425378      0.34786225041328
  C   5.92237964185094     -4.19078845897209     -0.20361338037338
  O   6.56800194593590     -3.11309816437597      0.35722949479023
  C   5.62729566989234     -2.44841142739998      1.20306320086177
  N   5.01329627990928     -1.27338459194197      0.53578750338018
  C   5.65094598597276     -0.15416554164650      0.13742280788260
  C   4.98065989001203      0.88324305592657     -0.42493386007253
  C   3.53837197915964      0.87878126318231     -0.59286934234439
  O   2.90979230187519      1.82148443488062     -1.07180546449755
  C   4.52008972175311     -3.33533107947865      1.34759688147975
  H   2.50172483686020     -2.49730169421714      1.83674164586356
  H   2.05717381742384     -5.45927988729849     -1.26588809164321
  H   6.44548227068645     -4.72451263995675     -0.97973206984557
  H   6.72105577067222     -0.15935307417965      0.29946297629871
  H   5.51287663475172      1.76767445005385     -0.74679137355319
