24
Coordinates from ORCA-job 3345optt
  Br  0.98324646549431      0.17904762555018     -0.18178736497118
  C   2.88139723883672      0.07413171499492     -0.03666420002489
  C   3.51857778482283     -1.14804130994634     -0.12766270517169
  C   3.01793316715185     -2.53366135871995     -0.06888490836696
  O   3.57346446779232     -3.30867161583258     -1.16595648426359
  C   4.93306769675381     -3.25435671088163     -1.21191209898703
  N   5.61843572361905     -3.87236619591711     -2.06862674573524
  C   5.51875885545768     -2.43054077884318     -0.08903096776865
  C   5.09738844316532     -3.10886960837792      1.22796995133587
  C   3.54107210214458     -3.20466663489069      1.23495238179575
  C   3.07054830515012     -4.58639854607428      1.34771383347534
  N   2.69778372586142     -5.66707379489356      1.44571623653466
  N   4.92142683634088     -1.11014548006493     -0.14736998412125
  C   5.64585736767353      0.02930045676593      0.33374718237243
  O   6.83061228247053     -0.14086207097462      0.60943082771545
  N   4.97107856091428      1.18764367074147      0.42042747135455
  C   3.63622110407792      1.21022631950373      0.17203024291817
  H   1.93794971327665     -2.59740589118517     -0.15622809828764
  H   5.00040827869448     -4.38502361522424     -2.69835245342404
  H   6.59451656308536     -2.34357559287436     -0.18386344560013
  H   5.44678796067063     -2.49213676905399      2.05464227031913
  H   5.54930951639846     -4.09690269170138      1.31191861917089
  H   3.12372081994362     -2.65204767778984      2.07676104839054
  H   3.15243702020357      2.18039655568960      0.18102939133952
