24
Coordinates from ORCA-job 3351optt
  Br  1.70768270733576     -0.80315701943356     -1.64065393137652
  C   3.38475090662047     -0.40237652801155     -0.77083737745341
  C   3.58958484195421      0.89226622843539     -0.37081066281271
  C   2.80486105588595      2.14576567093415     -0.53315812992871
  O   1.45157571301243      2.09422109745953     -0.01446907258748
  C   1.29200011353252      1.94946474823467      1.30631444667653
  N   0.32870433348237      1.34810390434135      1.85604969605392
  N   2.22449148502386      2.61934644151306      2.08944404438712
  C   3.28540175868354      3.36309685718858      1.64817370377850
  O   3.90077264013490      4.08413536210814      2.40015938564249
  C   3.67004222592204      3.19807509092455      0.18943631378997
  C   5.09066774154579      2.60955138124949      0.14030341737838
  N   4.82604416818524      1.19163055114761      0.23776423045310
  C   5.86024811043767      0.23835054485142      0.29531388086626
  O   6.98336878158741      0.60364251100018      0.66330428595248
  C   5.45514769585180     -1.06655634473322     -0.09293751150283
  N   4.23608153142918     -1.38267701017737     -0.62216744259304
  H   2.62777078697094      2.41223238856653     -1.57631249883812
  H   -0.23095520874226      0.89519363183905      1.13824382676619
  H   2.03755916103510      2.62720774124936      3.08157614505726
  H   3.61774616111096      4.18309986693554     -0.27223439772694
  H   5.72141501832886      2.95844203027333      0.95298286858583
  H   5.57291985073382      2.85282928375120     -0.81594656062209
  H   6.18511841993736     -1.85888842964748     -0.00553865994618
