27
Coordinates from ORCA-job 3355optt
  Br  0.71901062699932      1.00359712715643      2.30864170911245
  C   2.64272491002237      0.77964399967661      0.61193883799664
  C   3.75048281999825      1.42302055020898      0.98805571862394
  C   4.00483431933021      2.49405786352899      2.01850626677056
  O   5.36431663748942      2.19504692063597      2.41487485341320
  C   5.89905941279559      2.24039950301228      1.11636276215411
  O   5.54373667930976      3.53948423749596      0.64470579535064
  C   4.27752304632169      3.82360185675777      1.27341290591746
  C   3.25753365383193      4.25045110970057      0.24029204939110
  C   1.87266961223200      4.44258397696117      0.86854958357342
  C   0.93344557375075      5.05572272171705     -0.06502225459857
  C   0.18497675528988      5.56387921527970     -0.85228123176760
  C   5.03725624322804      1.23568027211088      0.37147882831088
  C   5.33048519320703      0.38710396256303     -0.62782553773355
  C   4.33888962540491     -0.49882429858443     -1.22585528629302
  N   4.54062396531060     -1.35548829134835     -2.15479360003550
  S   2.65544102817583     -0.39520724553884     -0.61990354828117
  H   3.32700974746325      2.52693319778177      2.86450880692659
  H   6.97805497529857      2.11555080263177      1.10630391074309
  H   4.43468106563278      4.62005457517184      2.00880401407157
  H   3.20071513427033      3.49451131984624     -0.54400482487334
  H   3.59390973723470      5.18130805177676     -0.22068623441636
  H   1.94717630147220      5.07650038318706      1.75785927200045
  H   1.47147532773056      3.47774870561640      1.19947710663184
  H   -0.49287642153024      5.99277627976667     -1.54905431774176
  H   6.33827138756967      0.31670499465817     -1.02776753114998
  H   5.52157264216035     -1.33584179177058     -2.43457805409709
