26
Coordinates from ORCA-job 3356optt
  Br  1.22402429458243     -0.05077232386686      0.58438628547418
  C   3.11054362154127     -0.15885321774216      0.28012265862150
  C   3.78371755067757     -1.32416162738691      0.08968701020478
  C   2.94908716502223     -2.56848323513674      0.22334065071816
  O   2.62842063367123     -2.80240200641159      1.60857747138727
  C   1.97585597362164     -4.02745730423141      1.59456882355556
  O   2.58816640064638     -4.81204748465981      0.58570541720132
  C   3.44767061782755     -3.95410419769067     -0.16994868990508
  C   4.88814549400045     -4.21085781500897      0.20409636844159
  N   5.76631885192357     -3.56640525710939     -0.73883724735766
  C   6.14312325334952     -2.21618458568143     -0.61952670130438
  O   7.29608166975008     -1.94885453638096     -0.98162085305847
  C   5.22296774050361     -1.20268575708924     -0.14158507357215
  C   5.81084669559747      0.08669758222042     -0.01329452745997
  C   5.09508987609828      1.26720668040156      0.23154767744420
  O   5.50577468444028      2.42681314429275      0.36040573995382
  N   3.69029878604393      1.07504505086462      0.31540672940631
  H   2.00103024659597     -2.41488745184401     -0.30523838696948
  H   0.91125861089290     -3.90228075227719      1.34731644263659
  H   2.08981982820448     -4.50699749582281      2.56832083800826
  H   3.30238088386646     -4.15330215222716     -1.23230232864717
  H   5.05760921926114     -5.28779707296431      0.16113650206098
  H   5.05432766901382     -3.88051461145324      1.23796023644465
  H   6.59881828316892     -4.08966051850281     -0.96449599874786
  H   6.87526104552873      0.17696545668713     -0.15674469860153
  H   3.14136090416995      1.89998148902125      0.48801565406458
