24
Coordinates from ORCA-job 3357optt
  Br  1.36754043940812      0.44199875951400     -2.15517709653328
  C   2.98050305722944      0.23682242452482     -1.16687937421861
  C   3.15000343483885     -0.92225683930777     -0.40879653971768
  C   2.50380994321671     -2.20381492281639     -0.08625623050177
  O   2.70093959896886     -3.25943571646622     -1.08494129050247
  C   2.79205469856756     -4.42606911697660     -0.34598609994295
  O   3.62945965496754     -4.14262870803838      0.76079989882499
  C   3.33886732220909     -2.78974697783771      1.12580781595807
  C   2.59609239659543     -2.84840136612183      2.44810887086565
  O   1.42662422973717     -2.62084203951214      2.60872347953045
  C   4.53685364203276     -1.89373286645124      1.21261656866952
  C   5.69640005549567     -1.51797826619938      1.86725561273618
  N   6.18370751806927     -0.34425278095214      1.36111907854564
  C   5.31294951859839      0.03873502458878      0.40676677591541
  C   5.13710573815875      1.17695048145828     -0.42199154805519
  C   3.93974846651809      1.24059025664877     -1.18192218271189
  N   4.35319326316732     -0.90626508261825      0.30166093806875
  H   1.43427882738556     -2.15701322127128      0.13108175358310
  H   3.25697607718989     -5.21221741165602     -0.93982493431029
  H   1.80229310661355     -4.74621173535271      0.01821201971893
  H   3.23932693206577     -3.15037881463257      3.29774536355247
  H   6.21093077657935     -2.03654213296349      2.66124864084561
  H   5.86145746588599      1.97498721152840     -0.43611508943286
  H   3.74788383650083      2.11370384091108     -1.79125643088777
