22
Coordinates from ORCA-job 3360optt
  Br  1.36589397202841      0.00326612936793     -0.48912999849980
  C   3.27429374171093     -0.00186956996854     -0.33353484265012
  C   3.93102799755949      1.17274661082122     -0.12765814900639
  C   3.27781494165470      2.50974859984448      0.32333703946436
  O   4.38870812151291      3.06215424662381      0.99313994905967
  C   5.09730776201851      3.33332106315178     -0.19999144856068
  O   4.26404742654359      4.46210146262491     -0.68809310226525
  C   3.05889673743334      3.75908441367770     -0.62895090681453
  N   1.97620283248046      4.12688916606433     -1.14186087233448
  C   6.31324192653651      2.27726908138335     -0.04766675418725
  O   7.51051152529797      2.38894067640084      0.02010495354782
  C   5.43810296721952      1.07277153193032     -0.05888659037620
  N   6.03779588261099     -0.12598147696106      0.00296622165580
  C   5.31456563166858     -1.22082713163129     -0.15216139754779
  C   3.92569014030448     -1.23581866918588     -0.39292306806745
  C   6.00862786140514     -2.48175406770093     -0.07358791194443
  C   6.55267491849126     -3.55073266936781     -0.01162181524088
  H   2.40215771528529      2.37040557949985      0.95660319935160
  H   4.77675725955391      2.69494531191889     -1.01749463998379
  H   2.10497307297718      5.00449048062909     -1.64579855002378
  H   3.39408460599147     -2.15803109528845     -0.56219541873530
  H   7.05062295971526     -4.48711967383454      0.04940410315887
