26
Coordinates from ORCA-job 3368optt
  Br  1.12403652262653      0.31621773843787     -0.89589431774735
  C   2.93617023012458      0.08141464098543     -0.33319526000682
  C   3.40774904201088     -1.23689315336689     -0.03331749417459
  C   2.57758999665968     -2.42893480428070      0.04654514950832
  O   1.73409784997654     -2.39781431390810      1.34144550889953
  C   1.30596432578985     -3.45744601256928      2.00198964197360
  O   0.48293672875554     -3.35451888480214      2.88091811668748
  C   1.92849293349860     -4.81047191411317      1.69690568213031
  C   2.57210108416063     -4.92251857337113      0.32357563338411
  C   3.41172237884570     -3.69459740920609      0.00598606516534
  C   4.60089363182777     -3.51439676037544      0.93764669036915
  O   5.43957799441836     -2.47071847862945      0.49240228916916
  C   4.80590153499945     -1.27439082695456      0.27502666714158
  C   5.53061373254441     -0.11543204288166      0.28372018962687
  Br  7.41737363783470     -0.22511515702545      0.62428843535651
  N   5.06480473469759      1.12223925566705      0.02314659677055
  C   3.75123801124436      1.17361201092776     -0.30198794821707
  H   1.79317179858165     -2.44054734733302     -0.71252004894815
  H   1.15229296799782     -5.55830534558271      1.85188945707510
  H   2.67252641331493     -4.97070816848302      2.48249758746571
  H   1.79489343709418     -5.01863633064181     -0.43954826498154
  H   3.18480029929338     -5.82652800603349      0.26843130037704
  H   3.80676646888365     -3.78208173475022     -1.00985545559094
  H   5.22283320661892     -4.41162352085823      0.95869030766585
  H   4.26062544719650     -3.29929196742180      1.95813364398910
  H   3.35382559100375      2.15148710657028     -0.54892017308887
