22
Coordinates from ORCA-job 3372optt
  Br  0.96686126660283     -0.29832265611423      0.09584496747489
  C   2.91280467824465     -0.26232927385330     -0.06070740166497
  C   3.56885461057679      0.91994057566375      0.22266161087556
  C   2.98615938951897      2.19404858510335      0.66176679547309
  O   3.68617765049545      2.72969239802137      1.78195005692474
  C   5.04046087795079      2.70424174753881      1.74767549628791
  O   5.67723095003658      3.02915410734046      2.71426029445501
  C   5.63039825740049      2.22607669613627      0.42019141643106
  C   7.14399797332483      2.26353778603126      0.59562382787102
  O   7.85062192072071      1.32775438381029      0.83138091045702
  N   5.34891212909819      3.24688506446583     -0.63037624085116
  C   4.16917229853993      3.59520628710197     -0.90122949967632
  O   2.99102755238497      3.22368548728710     -0.37131903419656
  C   5.01029828961353      0.90032779869830      0.13939673955327
  C   5.60911012124095     -0.29769017833671     -0.27384676072117
  C   4.82094008631428     -1.38609709945467     -0.54706922153340
  N   3.44034176883496     -1.38869933627385     -0.43304484142374
  H   1.94518354167370      2.12916189154877      0.95202481934430
  H   7.55350666736744      3.28386059054544      0.47717979570591
  H   4.00116824951130      4.33451104879130     -1.68114864831925
  H   6.68224514711001     -0.37714773409359     -0.36948478543425
  H   5.25952657343857     -2.32179816995794     -0.86873029703293
