26
Coordinates from ORCA-job 3374optt
  Br  1.14023646185297      0.10790597470927     -1.00202891267615
  C   2.98858313319375     -0.03704952194673     -0.50218441122424
  C   3.50624896220139     -1.21743559557831     -0.03937696854015
  C   2.68234357314272     -2.45618894585684      0.09685892392133
  O   2.01202058556784     -2.43552687372611      1.39734974533418
  C   1.58856744576952     -3.55348236114586      1.98434638375567
  O   0.92914674135443     -3.50065490328815      2.98924886237903
  C   2.00607929297922     -4.90143671900763      1.40522134812816
  N   2.66868611935701     -4.90350514567647      0.11175071397119
  C   3.51263811913085     -3.71660778656863     -0.05788098987827
  C   4.69179963928713     -3.69933931643822      0.89591520680004
  C   5.55472432325503     -2.44620778534872      0.75430902935759
  O   6.75408025567696     -2.53283067309979      1.06520327522559
  C   4.91318768385316     -1.24872734595755      0.29359304185507
  N   5.67945947562649     -0.11146896166713      0.17594635908854
  C   5.11034316742299      0.98283435038321     -0.25733439064655
  C   3.76555435578489      1.11836766521484     -0.63176676994152
  H   1.88274770191988     -2.45351782268311     -0.64729892839982
  H   1.11084431976403     -5.52144803990480      1.37329389494204
  H   2.65925892391621     -5.34286230656994      2.16208180395804
  H   1.96912254959755     -4.90682853023682     -0.62180906510408
  H   3.89294467610463     -3.72269255891054     -1.08230476911710
  H   5.32860254762402     -4.56623581318467      0.71925869101741
  H   4.34872799980522     -3.75820462438034      1.93528382915424
  H   5.75391995125465      1.85935255731832     -0.32645638160804
  H   3.35713199455742      2.05179108355077     -0.98521952175220
