24
Coordinates from ORCA-job 3376optt
  Br  1.04161155889865     -0.56854478835497      0.27523674707246
  C   2.83925298681182     -0.10172223043442     -0.04873868173264
  C   3.18848925273130      1.19318312086541     -0.46690698389346
  C   2.43473391992309      2.45817291617735     -0.51344082670687
  O   1.46533520363883      2.59010172142681     -1.56854383075189
  C   0.81116293806956      3.78962375496011     -1.52785932687058
  O   1.51446390931637      4.85609476556442     -2.17782877900045
  C   2.53977567467629      5.51483621579058     -1.59532918601352
  N   2.76861414256102      6.74051644192745     -1.83144267499628
  N   3.39082733142003      4.81995787567787     -0.75736933194668
  C   3.58799654477563      3.44264196663848     -0.66666578257778
  N   4.75675282731116      2.94810051873311     -0.58003505976527
  C   4.56066155002409      1.53984342402824     -0.43743720083916
  N   5.55313749421079      0.74216714046694     -0.23071619413895
  N   5.16119358731524     -0.58646585677622     -0.16291169061077
  C   3.86017219362776     -1.06803907993349      0.14717537515363
  N   3.66780222269756     -2.29519238317836      0.52366891326198
  H   1.89545834398217      2.67547555308155      0.42540133659304
  H   -0.10371662501379      3.70043992121902     -2.10736858823761
  H   0.59304303335619      4.09801859148811     -0.49715708181479
  H   2.03510553064222      7.10717715292646     -2.42940106239933
  H   4.22780527037778      5.35513899970394     -0.56842663010030
  H   5.90042067716499     -1.16011782150698      0.20825759498569
  H   4.55690043148117     -2.78740792049148      0.58383894532955
