23
Coordinates from ORCA-job 3378optt
  Br  1.42051626678842      0.40831330717722      1.82618146900017
  C   2.89021953783881      0.14810142594623      0.68641194073368
  C   3.28958980191788     -1.11108880011346      0.28201697251540
  C   2.91354846271093     -2.48067554479600      0.74399975822115
  O   1.52708124313023     -2.78571541131693      0.55823700680125
  C   1.06106302197706     -2.52959163102020     -0.69584485071070
  O   -0.10171126037823     -2.33386915752279     -0.89149514001421
  C   2.09340515540189     -2.73714773517778     -1.79293246992325
  O   1.95666821582385     -2.30104537401461     -2.91374015382433
  C   3.12706916581156     -3.77224345493920     -1.39925700506490
  C   3.85463945302073     -3.37793462608151     -0.10942649577429
  N   5.00243743043057     -2.51061517370875     -0.36102080477888
  C   4.55346169282430     -1.18550176949214     -0.36653348518827
  N   5.27257078458240     -0.21922785895015     -0.81262626760626
  O   4.65641426219520      1.04915161334357     -0.67025844971580
  C   3.59762189565025      1.29268377835267      0.18750553164396
  N   3.29766273708960      2.50832115583240      0.44182146688533
  H   3.07243867000131     -2.63569253278331      1.81571181847377
  H   3.82695447280510     -3.91477081572569     -2.22335069137329
  H   2.58984824782946     -4.71490935068522     -1.24195829365472
  H   4.17224032409312     -4.26389723750227      0.44100148844263
  H   5.58721417511517     -2.75928680643209     -1.14796349259060
  H   3.96004624334034      3.11564199961003     -0.03647985249786
