22
Coordinates from ORCA-job 3379optt
  Br  2.09991239784195      0.29706290534282      2.70166634139379
  C   3.27460372618511      0.26751124625117      1.22446377441837
  C   3.41575858543805     -0.90015135434438      0.45608008724690
  C   2.76878173640335     -2.21146647839145      0.46025848438002
  O   1.37036706109133     -2.18577484412824     -0.10401123409110
  C   1.05215495905450     -2.50807590136719     -1.34818806605588
  O   0.00874858502795     -2.19891057011640     -1.84713541812435
  C   2.03727544047498     -3.43749068231818     -2.10328506112862
  O   1.89827119148545     -3.63908253955411     -3.27425430867873
  C   3.09224009249097     -4.08767391385899     -1.25085610004715
  C   3.74614201639554     -3.02967866918614     -0.38890754856139
  O   4.40955122250248     -2.09851669337591     -1.24468420823000
  C   4.36252293526101     -0.88314328834474     -0.58810522427699
  C   5.10446428966934      0.20023486600659     -0.86457516705479
  O   4.92078818980901      1.35124932870950     -0.13115667008433
  C   4.03256267411364      1.43531727461872      0.95537869549572
  O   4.01587255847655      2.50202279653259      1.53770862091186
  H   2.58888083388271     -2.65024308042661      1.44064459310663
  H   3.81453741350544     -4.59416756147250     -1.88959189551882
  H   2.60582740797702     -4.82291335900299     -0.60205311618888
  H   4.48498881580436     -3.47833392941993      0.28358616075933
  H   5.85474786710924      0.28822444784639     -1.63298273967159
