23
Coordinates from ORCA-job 3380optt
  Br  1.50688004503769     -1.04292553084221     -1.04592246323989
  C   3.24280859843271     -0.57663059369028     -0.50464737409933
  C   3.53551771410439      0.68706095063578     -0.10840100772269
  C   2.66686147173915      1.93224976102625     -0.01292167773996
  O   1.43535725079728      1.70971802253533      0.58251945132731
  C   0.98647157496299      2.56149139252313      1.64535153617330
  O   -0.22375430033583      2.71396657538680      1.73027587316111
  C   1.99160488932095      3.06290027301660      2.52539789477565
  O   1.84641661962980      3.71389452873441      3.55475079377918
  O   3.33074982713734      2.73587224199645      2.14322964461162
  C   3.55431869709333      2.90979484192304      0.78045585091358
  C   4.97405193790821      2.46092690135494      0.47761760771997
  N   4.81760341928034      1.03146049740399      0.21250203448397
  C   5.82497847895599      0.13045534659555      0.16685795827676
  C   5.59682990143568     -1.15013346779441     -0.19783750641011
  C   4.27290678304573     -1.61743067707567     -0.58650333085988
  O   4.06028338086075     -2.76601403393991     -0.95279978156469
  H   2.52298663098078      2.30605587623618     -1.03926913016989
  H   3.37264413739017      3.94808402405693      0.48532375375405
  H   5.62408539293577      2.62518836825143      1.33552828017763
  H   5.38359385347865      2.95909691878981     -0.40470092773427
  H   6.80227479281013      0.50312974653536      0.44576978525689
  H   6.40452890299772     -1.86721196365961     -0.22357726487032
