21
Coordinates from ORCA-job 3384optt
  Br  1.26777553656162     -0.15764896693406     -0.74874984904506
  C   3.08502986775587      0.04860002278910     -0.21868323790781
  C   3.67771658205600      1.27667389951500      0.02589489757147
  C   3.13030168567018      2.57294436043695      0.22519994012538
  Br  1.32820283493751      2.89146172075898      0.70499073933664
  C   3.92535590266779      3.71416457194687      0.18191870109917
  N   3.55352751559842      4.99941664268840      0.24485603796701
  C   4.66324324159873      5.71624839943065      0.06254666635180
  C   5.83174784463185      4.90809082146911     -0.13002323145605
  N   7.07893074432364      5.18083938947013     -0.37485984320278
  N   5.30921177294162      3.61381240328554     -0.00987647571093
  C   5.90669859648005      2.35738688435969      0.04486212393325
  Br  7.78079796410903      2.22827510056843      0.26431708748826
  C   5.15420164730765      1.24282347235222      0.09208277463690
  N   5.71851054342160     -0.02181110730470      0.24708015375170
  C   4.99017642282860     -1.15979788723005      0.03897809446682
  N   3.73780243935202     -1.16164341331116     -0.20902528194382
  H   4.65640430683152      6.79631355110967      0.04164262374936
  H   7.17678138334075      6.19270457433241     -0.39504708339483
  H   6.71139329466856     -0.07542784772859      0.40384943230438
  H   5.54218987291695     -2.09042659200461      0.10204572987915
