21
Coordinates from ORCA-job 3388optt
  Br  1.11605454033320     -0.25069862650590     -0.42219974965189
  C   2.92860850181098      0.07534235161507      0.00049565606419
  C   3.57030138086690      1.30034517828144      0.07241369011764
  C   2.98293782280299      2.60541838522102      0.21278237040015
  Br  1.21113382205404      2.81559903438940      0.85774780008658
  C   3.75037071590112      3.74330985801635      0.02933395804679
  Br  3.01553039164250      5.49660238462600      0.10241627776772
  C   5.12151429508199      3.66238957309959     -0.20054539078508
  C   5.74391437495682      2.42965017452649     -0.17841710180193
  C   5.02472362804269      1.23815593020006     -0.01946592582001
  C   5.66062368764655     -0.02048523858678      0.02096292876546
  N   7.07324092593979     -0.12710755712832     -0.04941012847132
  C   7.91503453109338      0.27062841054613      0.92605406070740
  O   9.12284738987644      0.14382122545531      0.90444798822491
  C   4.95497192236299     -1.23680127016521      0.05064592547184
  O   5.39324719348590     -2.36703292271158      0.05459750724173
  O   3.55963651808861     -1.11612334877689      0.02575152697418
  H   5.68833072899343      4.56716728546958     -0.36408057569724
  H   6.81491917427858      2.37532932045595     -0.31408143425334
  H   7.48214225893969     -0.69462934243587     -0.78034717000148
  H   7.38391619580131      0.76111919440815      1.75889778661371
