22
Coordinates from ORCA-job 3389optt
  Br  1.07842726698129      0.57036725363483     -1.08923540375784
  C   2.92556482630333      0.02875455121197      0.28253190372492
  C   3.61481758803271     -1.16547054657808      0.23597645041706
  C   3.01461176662792     -2.46452407757331      0.35125094580853
  Br  1.20179143034789     -2.54404464943952      0.87245321209544
  C   3.75861964901301     -3.56812401597699      0.13370422573442
  Br  3.01586533995014     -5.30336517928860      0.28968479252420
  C   5.20182880630229     -3.47728381888631     -0.22423371387578
  N   5.94197627621567     -4.47706411541811     -0.53494864106673
  N   5.77270718587422     -2.21903148569362     -0.18405266841288
  C   5.04575340987869     -1.16659269436029      0.02223980607165
  N   5.71624663234224      0.05462807312340      0.05494619435379
  C   5.02860243057804      1.13061390753595      0.17264860873073
  C   5.79633199937288      2.42285748623622      0.29385984515272
  C   5.19434719713047      3.69234039956666     -0.23947370706742
  O   4.02809816586699      3.89656051823667     -0.43617046250875
  N   3.67143603298126      1.16649896923881      0.25935858085093
  H   5.40401053100546     -5.33727054786107     -0.51612189204828
  H   6.77651947393757      2.26742184249775     -0.15667513589465
  H   5.98943764234372      2.61846604808416      1.35788644568432
  H   5.93292604012450      4.49824430126814     -0.41901457548938
  H   3.19408030878957      2.05501778044137      0.16438518897299
