17
Coordinates from ORCA-job 338optt
  C   0.89507318970675     -0.07486724622115     -0.10797177680354
  C   2.39479767011289     -0.06417806700066     -0.17586625205743
  C   3.16982578369409      1.10517150018683     -0.05258997275665
  C   2.52825652626581      2.42648257233475      0.28236112965007
  C   4.58342173957755      1.10567269152270     -0.15686619725272
  N   5.20588518063073     -0.15591956305109     -0.36782523274139
  N   5.41946226469584      2.12845248673794     -0.07052554317673
  H   0.51641202932995     -1.09423481384275     -0.21735393938155
  H   0.40516101171364      0.52959954864389     -0.89425571602913
  H   0.50041528756966      0.30419815286462      0.84389100611181
  H   2.84864437565648     -0.93472650508294     -0.63385552965659
  H   1.45070432601272      2.32823201713380      0.41601105456093
  H   2.68794513591723      3.17444804448362     -0.50576214015701
  H   2.94031602054736      2.86002967523888      1.20381268762404
  H   4.76598650851046     -0.87815728492585      0.19359494604725
  H   6.18541365073095     -0.06194684804258     -0.13098545255524
  H   4.89227929932783      2.99174363901997      0.01418692857388
