22
Coordinates from ORCA-job 3390optt
  Br  1.18313636554798      0.64072846123701      0.86741224698450
  C   2.94845080095027      0.13985892318318      0.39411272602306
  C   3.39007036828404     -1.12191128407056      0.19254817809924
  C   2.62996808509516     -2.36107130003254      0.05639872879611
  Br  0.86795971550595     -2.40039594290011     -0.66412062764924
  C   3.27405674352338     -3.52221187268469      0.20895448595560
  C   2.70004100374143     -4.90783674899245      0.09649562622471
  C   2.92319060440529     -5.49712028125004     -1.22362148907243
  C   3.11303931904314     -5.97156375916559     -2.30689392726276
  O   4.58312492022456     -3.56620212983312      0.51012389476359
  N   5.42058921051246     -2.48224664935756      0.09921708183535
  C   4.83131422952126     -1.30999023925616      0.03243084025916
  C   5.70319649654940     -0.17597936618562     -0.25438059959846
  N   6.96170521453743     -0.27538390103772     -0.59828091565324
  C   5.14255562203366      1.16541655968396     -0.05911333945827
  O   5.74151661651215      2.22630172892609     -0.15070295030762
  N   3.79411711663195      1.20875731956199      0.31950158577694
  H   1.63298646233621     -4.89328019613910      0.31371130315677
  H   3.19728664855904     -5.52339894633676      0.84996669144750
  H   3.28882646043139     -6.37748380035576     -3.27322398309772
  H   7.19266368189763     -1.26690597547797     -0.65457011272179
  H   3.44820431415615      2.13391940048357      0.51803455549897
