23
Coordinates from ORCA-job 3394optt
  Br  1.72868736178345      0.54597846609114      0.85067241835515
  C   3.15854755288975     -0.12132945813123     -0.33933775629254
  C   3.67470577215986     -1.43287344941263     -0.12138140179524
  C   2.95539624813358     -2.64180772791713     -0.11360502731433
  Br  1.11980373370888     -2.62911234516989     -0.61470457192963
  C   3.50105260668320     -3.85708058089532      0.19254208058837
  C   4.89989548720211     -3.95962094376513      0.49799411859322
  O   5.50699953360649     -4.98304064715555      0.79409166811478
  N   5.59643231364624     -2.75523610386139      0.41307288413574
  C   5.07268345503789     -1.52850710900368      0.12047170856227
  C   5.88825638573151     -0.40973040109135      0.07873093395173
  N   7.26376035810936     -0.52002808116837      0.40278708364356
  C   8.26755418600666     -0.50591437350795     -0.54332563849466
  N   8.16529128865539     -0.53324127340014     -1.80477942821988
  C   5.36389768518498      0.85903748701714     -0.34795821584801
  N   5.96922203548498      1.96025653074118     -0.54581158812893
  O   4.00685112669411      0.88788088883275     -0.62478511024103
  H   2.92262468727203     -4.76639014047021      0.18195975845536
  H   6.59204254205842     -2.81449204158176      0.57690989662654
  H   7.55030056339828     -0.29783619938362      1.34500127055639
  H   9.26168836978969     -0.48298942016372     -0.09382690951469
  H   7.18142963731971     -0.53225297545361     -2.08276141744341
  H   6.96387706944330      1.83232989885050     -0.38395675636075
