22
Coordinates from ORCA-job 3396optt
  Br  1.15534182851049      0.41013600714164      0.39535664691149
  C   2.98347082462319     -0.03137036228632      0.14458305346414
  C   3.54256787335605     -1.28255830205344      0.07391378964872
  C   2.90817791423086     -2.57555881198927     -0.00274065669470
  Br  1.05930377408265     -2.83247572112448     -0.34861041887755
  C   3.67652434360232     -3.71223346523576      0.06153136298452
  O   3.04036405428329     -4.94006118320114      0.05168186059518
  C   3.68168852290077     -6.00452764684634     -0.47774895957029
  N   3.20787992630411     -7.17002819885712     -0.45162141919962
  N   4.99856600530599     -3.73162443442623      0.15725538684284
  C   5.61494162015656     -2.56827651824942      0.12911374686364
  Br  7.52773377833692     -2.70808225060910      0.20346264625979
  C   5.02131032086374     -1.29429702697774      0.06953875233859
  C   5.74512102407036     -0.10374540679105      0.02890702993784
  C   5.12139786225543      1.17298155546941      0.02460377919179
  N   5.64041855922251      2.35835821129089     -0.03599588434137
  N   3.73612655948223      1.11943095790489      0.11850239642928
  H   4.63913558757651     -5.77743675265972     -0.93495830639227
  H   2.31058546404992     -7.16897361678044      0.03545520145762
  H   6.82296756029971     -0.13252188081570      0.00686306947028
  H   6.65047096647431      2.27749992137830     -0.09391092794725
  H   3.27090563001200      2.01236492571815      0.14681785062732
