21
Coordinates from ORCA-job 3401optt
  Br  2.25710477363212     -2.53721497425572     -1.95148971368494
  C   3.59041298500787     -1.34590122931850     -1.33286968439067
  C   3.51508778977565     -0.64305807728594     -0.09264527592972
  C   4.55776026544310      0.31215695751083     -0.03021485817947
  Br  4.37887161031463      1.87848214806344      1.12790033355381
  N   5.65882542119915      0.24414915754190     -0.69860653447366
  C   5.84316844619792     -1.08610897523019     -1.09530225475765
  O   4.83797558958800     -1.66914039000041     -1.83582035242259
  C   6.83871309259736     -1.83496113916431     -0.63140848668244
  O   6.80946486730007     -3.22248974237308     -0.65604032981056
  C   5.85500911567817     -3.86723625029318      0.08982928926054
  N   5.83832164108741     -5.12857788885515      0.17420052767424
  N   4.96406442187776     -3.01579313187966      0.73818976116942
  C   3.74506478727459     -3.34131437194816      0.74313120287110
  O   2.76443302946904     -2.55496996720038      1.18950291329521
  C   2.81398594891022     -1.14064895935920      1.08540486365100
  N   2.21427261465885     -0.54966271658608      2.02375587455227
  H   7.65511366510367     -1.39639458533810     -0.07879188902729
  H   6.60046190423235     -5.51378605645690     -0.37948521709063
  H   3.36901497952559     -4.29590698791348      0.37438948899997
  H   2.19087305112641      0.44637718034228      1.82437034142206
