27
Coordinates from ORCA-job 3404optt
  Br  0.99145742086922     -0.13443307747546     -0.01106146382231
  C   2.89268598966355      0.05646244092645     -0.18098740890394
  C   3.69428998386991     -1.08955212264550      0.02035575320195
  C   3.17572252534424     -2.46885710897546      0.33293667693078
  C   4.41831376380527     -3.35182501419581      0.23010159801109
  C   4.45338452437524     -4.60847560892134      1.03922321301784
  C   4.69923317439316     -5.69312887332448      0.30910328410283
  C   4.86234217542588     -5.37783798874261     -1.16069999846556
  C   4.87881116012628     -3.84418971268365     -1.17876735268122
  C   6.25024539356333     -3.16963730411734     -0.93964473266320
  C   5.66737880063376     -2.42368957228427      0.28271993909815
  C   5.09075782918505     -1.06092868987411     -0.00638512384452
  C   5.84927825596298      0.05459706912338     -0.26474662570478
  S   5.13592025248705      1.59752387849337     -0.65790948050935
  C   3.31924022500358      1.35199545984001     -0.50049918499406
  O   2.66227057931808      2.36687304412677     -0.70189613484430
  H   2.39751146631368     -2.79658349206578     -0.36459585656642
  H   2.72474004975558     -2.51652923588941      1.33369166905724
  H   4.28521873153164     -4.61106836902271      2.11075291542511
  H   4.76198492615116     -6.70066616432360      0.70365407210128
  H   4.03724221392479     -5.80064948853875     -1.74298249100921
  H   5.78630531806729     -5.79628306334803     -1.57289977998240
  H   4.32013180173344     -3.40344770079241     -2.00275817460508
  H   6.63254252416518     -2.53160928072694     -1.73638389719741
  H   7.01219185018198     -3.90261581632787     -0.66293877452224
  H   6.28038617118116     -2.43882853380318      1.18824282586059
  H   6.93141289296748      0.03138432556875     -0.26462546649087
