29
Coordinates from ORCA-job 3405optt
  Br  1.34542395992056     -0.39381676042566     -2.10529284024261
  C   3.06072441506651     -0.07746077089012     -0.33102834540885
  C   3.63136116448316     -1.19632795788221      0.19390113351742
  C   3.12436136813716     -2.58009912798577      0.45700250552412
  C   4.43740269971944     -3.38050831918257      0.59083247419902
  C   4.39321941625979     -4.54303796441260      1.59227549009703
  C   4.26662013022831     -5.75561282794103      0.68434848130646
  O   5.11837466732398     -5.45915834361216     -0.40607203014688
  C   4.93896459260276     -4.07937791736502     -0.72158074658713
  C   6.28040516995531     -3.43038085355762     -1.04327334989167
  C   6.72988036829482     -2.84697150777194      0.30444487285156
  N   5.48085494493862     -2.37868353440218      0.89909312297952
  C   5.01621928009710     -1.14039878968706      0.44018355096001
  N   5.82169819923001     -0.12761280169609      0.23720199934351
  C   5.26137472972761      1.01566778884543     -0.26385942506871
  O   5.87458425074367      2.04245021313614     -0.50587131976266
  N   3.87102189825990      0.97965333496921     -0.52127592794099
  H   2.48661237383687     -2.94685117507983     -0.34965904892738
  H   2.55259395578483     -2.63933629622940      1.38758932318904
  H   3.57734442733784     -4.44209513596609      2.30663629079207
  H   5.33487021393391     -4.59096370113794      2.14189604189954
  H   3.23159186763954     -5.88004428960375      0.33782902260748
  H   4.60217514173647     -6.69104916062919      1.13136788151583
  H   4.20920766756802     -3.98168082957845     -1.52982238923142
  H   6.13452157917486     -2.61380461699999     -1.75269824079277
  H   6.97523703872690     -4.15350401110096     -1.46877705974073
  H   7.42242796414778     -2.01330772439719      0.21900542364582
  H   7.16685015027123     -3.62040840652715      0.93982911633090
  H   3.50307636485285      1.81572148711127     -0.95222600701753
