25
Coordinates from ORCA-job 3409optt
  Br  8.10980691963052     -2.74249698253046      0.92510954625083
  C   6.57467442757524     -1.63564734853361      1.22277607347604
  C   6.78196629613126     -0.28750118871601      1.58218910863765
  C   8.13217020470434      0.35466539647632      1.75620447638204
  C   7.80665257819617      1.82378496646835      1.95195394577744
  O   8.68882073267694      2.65597802625716      2.68710432200745
  C   8.55067138709238      2.93139909077927      1.29601707813933
  C   7.87722106086047      4.28650475989710      0.93341439419665
  C   6.63874768564019      4.23458710670319      1.78751812949089
  C   5.94008560521707      3.12909834951062      1.46716523389727
  C   6.26863308486203      1.93401353057297      2.30275423943209
  C   5.73820525732308      0.59082634477907      1.88878094750514
  C   4.40457918719622      0.27947470661230      1.84033402894644
  S   3.83477020858569     -1.29226396951069      1.34803397053542
  C   5.34622462135566     -2.29506732993253      1.05960836564543
  O   5.12155373199848     -3.45612729904394      0.74472552607024
  H   8.79582286084105      0.18174535608202      0.90508570341861
  H   8.65639536476224     -0.02640928875476      2.64157080642688
  H   9.43113717199979      2.66221126103370      0.71350370470446
  H   7.65403116107392      4.27064468281566     -0.13630994566720
  H   8.56162072120630      5.11295331973435      1.14171142819698
  H   6.81461139694328      4.42311303026129      2.84338634834480
  H   5.86350563839650      2.87727060508955      0.40766349745624
  H   6.18409145017590      2.13277522890556      3.37655087075833
  H   3.63600124555521      0.99746764504352      2.09414819997055
