28
Coordinates from ORCA-job 3420optt
  Br  1.69570485235215      1.20266310159709      0.66266912246595
  C   3.47997971419343      0.67021077371783      0.13604094169050
  C   3.77690062375502     -0.65786950186954      0.14089760005880
  C   2.95049888072416     -1.86240208601526      0.48478102112819
  C   3.92159125895344     -3.05678924759590      0.35880992920919
  C   4.09311284743140     -3.88958061519335      1.64877081617059
  C   4.89539757548569     -5.07350006069100      1.11492697255766
  O   4.27005835372759     -5.33233588919069     -0.15207588451531
  C   3.32194301052397     -4.28667249810357     -0.35006390760240
  C   2.13534987871029     -4.60768042311171      0.56120168885005
  N   2.70409621166643     -4.32997701925614      1.90952370055065
  C   5.23260651629547     -2.46437273745692     -0.21474990089331
  O   6.24347178831855     -3.12756477543022     -0.51865529356323
  C   5.07138519486807     -1.05398422622104     -0.27450379886093
  C   5.97521606829147     -0.02894506947516     -0.65906956568895
  C   5.53380934504682      1.27121883450209     -0.59882621035171
  N   4.30046114255380      1.66492213993351     -0.20966055419266
  H   2.11642266335059     -1.95398362937215     -0.21877677771888
  H   2.50919167021073     -1.79568147564301      1.48073894521926
  H   4.53077988285090     -3.36506281408259      2.49645259642721
  H   4.78906469840242     -5.95724733530694      1.75364661883453
  H   5.94674669241704     -4.83649513081911      0.95114343886653
  H   3.10764686856828     -4.18429307334543     -1.41202642986454
  H   1.84125500305610     -5.65203705609413      0.44401007548366
  H   1.26760524616007     -3.97033324173335      0.37184308513723
  H   2.71056969061820     -5.17352847044283      2.46945791725286
  H   6.97916620051725     -0.26620378305667     -0.98442562225169
  H   6.20096812095060      2.08152530975622     -0.87908052439927
