25
Coordinates from ORCA-job 3422optt
  Br  2.00360383512661     -0.48360468567304     -2.88992680649130
  C   3.41792694387776     -0.29048241961417     -1.53436592710683
  C   3.33474475888662     -1.09596053566616     -0.43119435275503
  C   2.21552750492060     -2.07813723777945     -0.18774760568719
  C   2.33762582535227     -2.84705318343533      1.11320696992190
  C   3.34904978901277     -3.93681025871934      1.33998582545473
  C   4.50849448572993     -4.10830517987274      0.38914488837877
  S   5.72890496944077     -3.02417225269703      1.16373585264183
  O   6.17851738231041     -3.68145057195592      2.36466380128027
  O   6.69982565218398     -2.50929270455367      0.24648991529800
  N   4.59094523935010     -1.83597528911451      1.59419153136170
  C   3.46252832436711     -2.59891157478450      2.06961220344640
  C   4.30686810105930     -0.84230785423855      0.59945114220738
  C   5.22672626053857      0.21270281484079      0.37263715213103
  C   5.16790084928169      0.92782554421393     -0.78621371173759
  N   4.27536109169781      0.68444069590162     -1.80634012601514
  H   2.12854979079849     -2.77718086643114     -1.02483813059942
  H   1.26598899485904     -1.53414904598145     -0.16430602410264
  H   1.39286283375119     -3.04308110350120      1.60500596956031
  H   3.05472411492615     -4.80049309671180      1.91795267045413
  H   4.32987171792728     -3.71679323441677     -0.61342361243154
  H   4.89697440221073     -5.12309384671093      0.34593917962170
  H   3.28041231448033     -2.56200352659452      3.13432501204311
  H   5.98205600299894      0.43327592482678      1.11732337341398
  H   5.85400881491149      1.75001348866917     -0.95830919028857
