25
Coordinates from ORCA-job 3424optt
  Br  1.91020145444770      0.93788323580329     -1.43782167394597
  C   3.45440847458786      0.31652169354032     -0.49378950784358
  C   4.13363716189111      1.21816650429971      0.31889065702896
  C   3.96576872117899      2.72131946705089      0.23672318963280
  C   5.22582253889893      3.28223441353301      0.87564166373022
  C   5.94619673261523      2.15612373760298      1.51842066894807
  N   6.56303381607858      2.89059249805833      0.41828309643667
  C   6.77581095453879      2.21187028487977     -0.80158288460629
  N   6.46412317512171      2.68331094123127     -1.94727797889051
  N   7.48616213599541      1.02606118992323     -0.71445651752818
  C   7.45807413294409      0.12931605691254      0.46467956757312
  C   6.05359481345578     -0.24137934698792      0.89671099313206
  S   5.28570806666810     -1.63198759245735      0.17431189128891
  C   3.78577949644843     -1.05459484574241     -0.67310322430239
  N   3.11294607607447     -1.90433622933954     -1.36349391222501
  C   5.26740256330407      0.90662262804750      1.07418031469398
  H   3.09149684473391      3.08980859647972      0.78194700881177
  H   3.83923879172765      3.01590557150104     -0.80725379836011
  H   5.19231584576656      4.26841144120762      1.32036642628498
  H   6.44936894354447      2.22152865200844      2.47619516729630
  H   6.00270457135202      3.58063718261058     -1.82941064783381
  H   7.42991796351567      0.54162112468116     -1.59921730964717
  H   7.98408570038673      0.63341474713237      1.27771261835913
  H   8.04467504283068     -0.74814684649459      0.19536441882963
  H   3.57552598189301     -2.81090510548198     -1.37302022686357
