27
Coordinates from ORCA-job 3429optt
  Br  1.32958522017308      0.22885351716165      0.09100525343873
  C   3.25309082751576      0.05188513996014      0.11949373194449
  C   3.80852554513590     -1.09493528570908     -0.40082652793582
  C   3.22480958709854     -2.38203636264937     -0.89257490504934
  C   4.33518572656685     -3.40644993573501     -0.53140530720066
  C   5.62699550169917     -2.53120062553676     -0.86361507688558
  C   5.22807152107686     -1.19824486377808     -0.35644088213725
  C   5.94489981599970     -0.17392719492700      0.25942834931941
  C   5.25371442218556      0.92803701319422      0.72514670779916
  N   3.90708422574190      1.06450189247501      0.64390701668157
  C   4.37091236658987     -3.84154397406622      0.94052081131214
  N   5.09124453573119     -5.12096585910325      0.90298827966549
  C   4.62807206812940     -5.82719748849251     -0.29746163976320
  C   4.31256898413342     -4.69872800719772     -1.26121497069906
  O   4.19976646899086     -4.81707199439189     -2.48718550741900
  C   3.01928685806983     -4.01908259046359      1.51786077218588
  N   2.00781163432249     -4.24048124746126      2.01587606134955
  H   3.13182929328494     -2.41363237561855     -1.98326476203265
  H   2.25165229917897     -2.62255158935458     -0.46258202159667
  H   5.69257271948148     -2.57581864158117     -1.95728063067259
  H   6.54622979606886     -2.93687471607604     -0.43625978197153
  H   7.02286390416865     -0.21968646934661      0.36317060989510
  H   5.77984790983518      1.75821565466980      1.18223797360383
  H   4.90344942084492     -3.11460286231861      1.56137705739842
  H   4.92961691740812     -5.65197285093443      1.74988461725298
  H   3.73714870898113     -6.44847230135850     -0.11249103216790
  H   5.41316372158733     -6.47401598136055     -0.69829419631551
