26
Coordinates from ORCA-job 3430optt
  Br  1.19573101355595      0.13045593796743      0.92215116663721
  C   3.11468637804109      0.30030299167851      0.69417461266789
  C   3.60225459259734      1.48158390777000      0.20988396080715
  C   2.94142858204770      2.76745873772077     -0.20329857750122
  C   4.09919568857472      3.78022197708822     -0.04896667913781
  C   5.38222970486850      2.98152069739811     -0.39963998353509
  C   5.00378252403757      1.58055045956835     -0.00357081464587
  C   5.78703757182271      0.43701049419266      0.24958579333022
  C   5.15642640016045     -0.68259980246483      0.73704022633440
  N   3.81909160583059     -0.78522657143483      0.98311247692591
  C   6.60172215148172      3.31417744811049      0.41046905863732
  O   7.72139783810044      2.93619453076301      0.06257756881299
  C   6.41562423532687      3.97024995879209      1.75895193803621
  O   5.32899668883048      4.88745656718741      1.77775679400040
  C   4.13909545967491      4.23280820737050      1.41867450841001
  C   3.02174975135853      5.15391152381782      1.69413008880044
  N   2.13242855924552      5.85114354287857      1.88430861240941
  H   2.06587395849494      3.02837715426007      0.39506874459043
  H   2.61840737263624      2.72149954618021     -1.24746166841264
  H   3.98692798761720      4.66007366328995     -0.68302435063224
  H   5.62381123916671      3.09005790595808     -1.46949822401943
  H   6.85714218902593      0.44413169688581      0.08524545914919
  H   5.73107300004773     -1.57762331028868      0.94997742454561
  H   7.31611170023166      4.53655078024283      1.99071732988115
  H   6.26714741639069      3.21489410723810      2.54772251580062
  H   3.99262639083375      3.34681784782929      2.05691201810774
