31
Coordinates from ORCA-job 3437optt
  Br  2.45674924682290      1.29406450610232      3.26679052962181
  C   3.58791439731443      0.82804577829883      1.70656871377125
  C   3.83936460611740      1.80204897799987      0.77422958880384
  C   2.75818185375590      2.75271963440129      0.31669976585881
  C   1.51715203454787      2.00074443010993     -0.17202595717014
  C   0.93135605267103      2.28245563979185     -1.52834154543430
  C   1.59297078132082      0.95986924006983     -1.25198614806594
  C   0.70794652356793     -0.26724183019848     -1.17699845658181
  C   1.24062432679917     -1.42683465446127     -0.32961175145462
  N   2.34820993294169     -2.15252878658878     -0.95643275767745
  C   3.53432468126736     -2.38270434088102     -0.10827404548138
  C   4.14407115452491     -1.06705428950956      0.26878055690011
  C   3.80684150701121     -0.52889722085157      1.52458039025460
  C   4.75292385505145     -0.30139752623901     -0.77292919574297
  N   5.09098065069965     -0.65170455512524     -1.96811261676106
  S   5.12394561067257      1.41548926184504     -0.35650156105474
  H   3.15140286240140      3.37387217030881     -0.48975876132064
  H   2.45716294313428      3.42348941451930      1.12683256768543
  H   0.80377625929917      1.77529863982452      0.61457986084337
  H   1.45711443392268      2.99397523837706     -2.15251550665052
  H   -0.14668085616457      2.29175673281046     -1.64155395861305
  H   2.56537012995922      0.80219923614512     -1.70570168735240
  H   0.51499959597644     -0.63623732449487     -2.19042354526984
  H   -0.26058595655796      0.03774783058644     -0.76164891029488
  H   1.56780146862868     -1.02630991969768      0.63191565762782
  H   0.40842540291864     -2.11115130168991     -0.11883582139186
  H   2.02314462768329     -3.02920707014361     -1.34247470510215
  H   4.21707459587136     -3.01010830897911     -0.69233751920562
  H   3.28825437353713     -2.93842354425531      0.80949598260002
  H   3.50888146664351     -1.21277694181299      2.31221814889580
  H   4.87830143766040     -1.63919911626225     -2.10722731223749
