29
Coordinates from ORCA-job 3438optt
  Br  0.88773833261081      0.15215521263262     -0.11136161143157
  C   2.78370787182914      0.11094936237001     -0.03688310183351
  C   3.51475098415280     -1.06351134810536     -0.35296042208851
  C   2.79912885804259     -2.32285214705864     -0.73741230959190
  C   2.23790403346123     -3.13431486144604      0.42961397083966
  C   2.15558789108223     -2.58102079177721      1.80976290712586
  C   3.06000667627232     -3.74374812029960      1.54616249255086
  S   4.82037185902311     -3.63951790772672      1.75765137643597
  O   5.18980623251140     -2.47427656034391      2.51400622228568
  O   5.19176090616979     -4.94592373383741      2.26735633169866
  C   5.53233414132425     -3.56045195562280      0.11563459486768
  C   5.83354423806425     -2.18169979234315     -0.47908635907080
  C   4.90743904539097     -1.01083995716090     -0.22237402891432
  N   5.57999819691153      0.07821557327853      0.11076750133650
  N   4.82678606397446      1.22173796120885      0.24916283206688
  C   3.43272465964879      1.31858472092538      0.33274593752411
  N   2.83723802946012      2.42029642575942      0.67523388360352
  H   3.43672536060136     -2.95559602639404     -1.35835960882545
  H   1.93983608089299     -2.06341212690221     -1.35935153638353
  H   1.42336681993478     -3.79069517816977      0.14005115230128
  H   1.27426361723408     -2.76230421693607      2.40783879587475
  H   2.64714038399691     -1.62865926603772      1.96751436925518
  H   2.76022980790275     -4.72530963995166      1.88591865629451
  H   4.86683878007844     -4.16959781611675     -0.49518026794038
  H   6.45764141589211     -4.12584866089836      0.24055737233246
  H   5.94653849014954     -2.33212308265535     -1.55921847422211
  H   6.80262899009039     -1.85337343738116     -0.10732837355662
  H   5.33882693950507      1.96046892157783      0.70133786104188
  H   3.53013529379169      3.13766844941225      0.88119983642325
