24
Coordinates from ORCA-job 3439optt
  Br  2.18553835183845     -0.71561429620923     -1.72348131179962
  C   3.68478733517478     -0.62173928572355     -0.54069850401600
  C   3.87841137613958     -1.66336423200393      0.40290751153331
  C   3.87265666478239     -3.20024262533209      0.17442314121731
  C   5.32980053875480     -3.52868046312383      0.50344389767991
  C   6.44362609067083     -3.87788494941852     -0.21587869155445
  C   7.56931737939147     -3.06702740863676      0.25162967527883
  C   7.05228209563061     -2.31460022318492      1.24845433518389
  N   7.29840433100234     -0.91088088065141      1.20740922303825
  C   8.34323704075026     -0.77779249965710      0.15961682377157
  C   8.57877310963391     -2.21092229815575     -0.47324915682493
  C   5.95468541819726     -0.46111927003450      0.90491707418913
  O   5.67852462915372      0.62597667453643      0.18835307626669
  C   4.44825419413504      0.56013898683874     -0.64354093144880
  O   4.28664510371645      1.55718199388923     -1.31285140866887
  C   5.04434370285799     -1.40881430848567      1.18477547594466
  N   5.73560265874417     -2.61941296111846      1.49886628263320
  H   3.63261716177823     -3.44919944708048     -0.85952268537462
  H   3.16095807368078     -3.71368915440905      0.82542364315899
  H   6.45318273694531     -4.53285985633396     -1.07502194638857
  H   9.26036126814249     -0.41119679302909      0.61739570184245
  H   8.01143469970438     -0.04454596220099     -0.57561862330976
  H   9.62080229230494     -2.50434835154704     -0.33298575948345
  H   8.37975374686975     -2.21536238892805     -1.54676684286912
