26
Coordinates from ORCA-job 3443optt
  Br  1.08705385190274      0.22133626759029     -0.19447715155577
  C   2.97370925496430     -0.05197002653867     -0.34085081728645
  C   3.81423410823466      1.02829834530465     -0.06915865225076
  C   3.38842895728040      2.42420044765998      0.34899112878973
  C   4.70407647779274      3.06185305840462      0.68850769999951
  C   5.71236946450585      2.20438415136481      0.43858874088181
  C   6.99514493800499      2.99305156025727      0.42424656692692
  C   6.87517576014188      3.87791972745218     -0.84818295891779
  O   5.82092920325456      4.79278758544767     -0.55007785939117
  C   5.33082568721065      4.42172063521015      0.78243089511462
  C   6.65844810741011      4.07848067613713      1.47352765089905
  C   5.22730392573787      0.92769575595035     -0.05182478562474
  C   5.94346124670237     -0.20439773297473     -0.38291912723152
  S   5.14163367254455     -1.61256860025558     -1.03414815509675
  C   3.37349101896850     -1.34931680573404     -0.74421658023277
  N   2.58533262237739     -2.34426461406912     -0.97897787467409
  H   2.67722358265553      2.39727991533698      1.17992384500216
  H   2.88388155222341      2.94897467916214     -0.47073912001770
  H   7.93924992176803      2.46238177951580      0.51961229698188
  H   6.62414922287599      3.28463780112558     -1.72935384892117
  H   7.79358646683725      4.44367841030068     -1.03126467697945
  H   4.75195610459962      5.26137816498367      1.15684173055299
  H   6.53515090568284      3.67263862864068      2.47446776112142
  H   7.35535872539928      4.91914718202810      1.46903249962311
  H   7.01529252559591     -0.28664011333107     -0.27533036999686
  H   3.11453269532850     -3.16568687896956     -1.25964883771620
