29
Coordinates from ORCA-job 3444optt
  Br  1.63326697826714     -0.56081096774391      1.14299847654327
  C   3.16878224811557     -0.45071330370137      0.02459403391932
  C   3.90303921793767     -1.59271516939291     -0.30407336959870
  C   3.92566543289010     -2.91276491995947      0.46354837872536
  C   5.33537676905042     -3.54285924106364      0.20415226177716
  C   6.38068155316248     -3.55140645009451      1.40806277727632
  C   6.74073957639124     -2.05817378660180      1.41060480665049
  N   7.75799615395823     -1.10523830388933      1.98115764735472
  C   7.73710148705451      0.09821881760748      0.96785774971681
  C   6.57681477270818     -0.30302528734952      0.00673827777892
  C   6.93187721084473     -1.77182826255861     -0.04678834702346
  C   5.95888578747614     -2.58129247485176     -0.85192392233244
  C   4.97880090793628     -1.48874933245427     -1.15439373733993
  C   5.61847879402759     -0.16265482969973     -1.23324723685471
  O   4.73368107955407      0.89659355676383     -1.18932621458285
  C   3.50393374342234      0.82950072610468     -0.50863927715933
  O   2.87854008172187      1.86528655046188     -0.43131288687180
  H   3.12836394239566     -3.59012205449932      0.14689053184262
  H   3.74545587498707     -2.70503324807634      1.52233808129991
  H   5.22124790845458     -4.56242644440658     -0.16561070370010
  H   7.21527599312595     -4.20573658286794      1.13749936581285
  H   5.93685050948105     -3.91433626963725      2.33718143331014
  H   5.79110541217479     -1.63266535426750      1.73356467311817
  H   8.67521707122727     -1.53041082686735      1.89181870165465
  H   8.71592112822481      0.17333290575769      0.48976275008878
  H   7.53839924809142      1.00869984726150      1.52763451238896
  H   5.75094640369043     -0.18791907042567      0.72196678636185
  H   7.98502771809690     -1.92773750317539     -0.31218855081108
  H   6.40352699553138     -3.08901272037286     -1.70986699934590
