22
Coordinates from ORCA-job 3445optt
  Br  1.27766931452543      0.40807986601065      0.89741826143118
  C   2.88571160984761     -0.06202207760017     -0.00036419065695
  C   3.40560117288319     -1.32083956272282      0.04807009020637
  C   2.76323429400985     -2.54219669526146      0.36850954902963
  C   3.44567736379986     -3.72883738773720      0.23958308496499
  C   3.05970143281418     -5.07431814364238      0.43025632618879
  C   4.17928241588321     -5.88305001253183      0.13853972959195
  N   4.55408745839560     -7.18948992394463      0.09650719820173
  C   5.83404758035480     -7.09110777369222     -0.28838000772455
  N   6.34742244582620     -5.84726437684854     -0.50565412053416
  C   5.28879997558888     -5.07713509529702     -0.23278083649506
  C   4.88089005639166     -3.69380794465772     -0.17019192001850
  C   5.50048567855580     -2.52104697940676     -0.33225793753827
  N   4.79100719544382     -1.31735690154849     -0.24989005714676
  N   5.54665442409519     -0.28060913504278      0.34197239426070
  N   5.05542968143383      0.83930653798517      0.35108408068388
  N   3.81135653371475      0.96379301337442     -0.29767593795614
  H   1.72192006418141     -2.50590107783769      0.65932064726375
  H   2.07636306300037     -5.39357294538435      0.74343214248419
  H   6.44930315113501     -7.97150638806339     -0.42551429490268
  H   6.55373953790105     -2.40585657379770     -0.54353705239018
  H   3.46461555021821      1.89573957764694     -0.12844714894390
