25
Coordinates from ORCA-job 3453optt
  Br  0.85435621095973      0.31461780121476      0.82503370183405
  C   2.57260827671614     -0.02793178650366     -0.02757320167337
  C   3.27616330371852     -1.19750996036692      0.28608545395409
  C   2.49722940774799     -2.41544286486293      0.75425736897019
  C   2.86335085843006     -3.77302787251741      0.13194414954395
  C   4.08785731223088     -4.44212556275628      0.79014568758047
  C   4.95642726248677     -3.70039177572819     -0.24619762315924
  C   3.71353547612825     -3.62625317935623     -1.14972776641920
  N   5.40516490211351     -2.40895666197754      0.25556824118947
  C   6.59356211153265     -2.42132842273098      0.92010627676540
  O   7.25864202790348     -3.42801196528343      1.09487107252961
  C   4.66646460137477     -1.18453405443779      0.14249260204756
  N   5.48257530403582     -0.12855268330825     -0.03429064654758
  C   5.09581613791237      1.10592942471524     -0.29879573710639
  O   5.77480636299768      2.11167624871329     -0.36475799636833
  S   3.29790336932669      1.38207360869281     -0.70598833441457
  H   1.45204244834006     -2.22397119963317      0.52372148280038
  H   2.55425871042994     -2.50233055072158      1.84573647358160
  H   1.96643673693972     -4.38945364180513      0.06097935180732
  H   4.10595871072521     -5.51939507642180      0.61990378435471
  H   4.29183277252728     -4.22454047918156      1.83872825075886
  H   5.83486871550281     -4.22119046245161     -0.61904735977609
  H   3.66550822774974     -4.52343975618528     -1.76736277843805
  H   3.57211867997072     -2.74022747747859     -1.76533982935714
  H   6.89051207219906     -1.43268164962772      1.28050737554230
