23
Coordinates from ORCA-job 3458optt
  Br  1.94631997298946     -0.75903073871626     -0.49594610318778
  C   3.66118251520294     -0.06125202221174     -0.04916636933188
  C   3.78461590093946      1.04705773239617      0.78342509603275
  C   2.93246008085247      1.90942761269680      1.47925677491108
  C   3.76261692423599      2.84082400585027      2.13865067173881
  C   5.15992180318307      2.55764089317429      1.85012794971837
  C   6.00499202529932      3.53138309171891      2.53330487053918
  C   5.15869881647918      4.35838257651157      3.19550617545712
  N   5.37225618926522      5.45406848702614      3.99035391971686
  C   4.30169757398783      6.11759898392029      4.56023116867623
  C   3.03711367845547      5.68930725732906      4.32422021841827
  N   2.71544415203781      4.61284214451900      3.53802206915024
  C   3.72284812514195      3.96822461103704      2.98916861708457
  C   5.16410722644807      1.47540684997457      1.03384085143625
  O   6.22150935600452      0.80254422844171      0.47013275373479
  C   5.90943494777709     -0.25795419168025     -0.31485756704496
  N   4.72664760967307     -0.68957816551105     -0.57917363729899
  H   1.85584988633098      1.85689185345973      1.49610191226169
  H   7.08305529756186      3.58594349591637      2.51281325924256
  H   6.31021391643094      5.76592611081947      4.16973141163447
  H   4.53340631622533      6.96959859707173      5.18097653841388
  H   2.21138404410451      6.22099362570766      4.78027124288074
  H   6.79122364137339     -0.73224703945149     -0.71999182418423
