25
Coordinates from ORCA-job 3463optt
  Br  0.95107506125987     -0.04506742560594     -0.07053333343390
  C   2.84300252837368      0.12175693180135      0.05919196176314
  C   3.45592782283255      1.25661256265717      0.53348359337558
  C   2.69423704075475      2.46608246710993      1.02662341197316
  C   3.03384544740515      3.72657813784516      0.28932368801367
  C   4.25592272512518      4.19249900787152     -0.13694045884574
  C   5.63563674243626      3.64948133987778      0.01950321431891
  C   5.63112580609701      2.49620070921570      1.03836061529992
  C   4.86954172978060      1.29670900369044      0.55841270453291
  N   5.63967090207258      0.27545208766859      0.04700962522267
  C   5.03870603284226     -0.79098663406882     -0.39278501551432
  C   3.63174936207186     -0.99680249978256     -0.40161849292299
  C   3.10870742693914     -2.21224196756039     -0.85903597837286
  N   2.71639555059462     -3.23516346304118     -1.24675448078313
  N   3.94759931301099      5.36405638051056     -0.73522976271363
  N   2.63955335920507      5.62287177699182     -0.69118129985824
  N   2.08532842209845      4.63586107072619     -0.07245589237585
  H   2.90841347188749      2.60391772364455      2.09245132207434
  H   1.62189813355171      2.31289234010930      0.93894945752695
  H   6.30714716571110      4.45407819593702      0.34351639655425
  H   6.01007849758518      3.27069043082440     -0.93557988711626
  H   5.23711576761233      2.88588133300744      1.98436787134941
  H   6.65962527167327      2.18053527926583      1.21515391552622
  H   5.66780300188424     -1.58849652855166     -0.78179081102143
  H   4.56589341719460      6.01260173985577     -1.19244236457279
