25
Coordinates from ORCA-job 3472optt
  Br  1.41285567779170     -0.66362627200213      0.55603269498588
  C   3.20015864369866     -0.28665541731291      0.09462055357579
  C   3.65026528652756     -0.53915850932138     -1.14245354922190
  C   2.92114483687011     -1.16068600268232     -2.32676617874336
  C   4.06075822153529     -1.38764727478629     -3.28036642449859
  C   5.17024455333703     -0.86667344085231     -2.74529230287756
  C   6.35445521208173     -0.88244060580472     -3.65292128896580
  C   5.82753052746449     -1.85326772770168     -4.75018167684077
  C   4.27007157619882     -1.78439513165774     -4.70660915734408
  C   6.38461222360869     -1.60509972343511     -6.07792328128901
  N   6.81614485397105     -1.41974611086273     -7.12478291892616
  N   4.97767377028968     -0.32256036993958     -1.49826048130704
  C   5.94111580118154      0.16202077407805     -0.58008745497828
  N   5.49919397131812      0.90296690347690      0.48003265057713
  S   4.30924848876512      0.33861222349243      1.34361837641999
  O   3.63490826124717      1.41712440631403      2.02336156795263
  O   4.65119102429276     -0.80565827106395      2.16198831156364
  H   2.16698535056063     -0.46799297589084     -2.71781525729994
  H   2.38971343222246     -2.06373353177366     -2.01782859927793
  H   7.27043898323368     -1.25261579416158     -3.19175555162182
  H   6.55974573089881      0.11310353746507     -4.05635429624223
  H   6.11897528253119     -2.86517499748869     -4.46392048716218
  H   3.83881319143401     -2.74517093856029     -4.99519905309637
  H   3.89694413058395     -1.03688761023712     -5.41770971242125
  H   6.86381096835557      0.47136286070859     -1.05842648296069
