25
Coordinates from ORCA-job 3482optt
  Br  1.18510634030951     -0.15749994176806      0.48778524960737
  C   3.03113074933400     -0.16039268116691     -0.07615405145366
  C   3.73529992156231      1.08475741471752     -0.15614135682388
  C   2.90882379398069      2.33352492589830      0.12796554353918
  C   3.58024806700016      3.71758144053891      0.04825529510035
  C   4.16552586936137      3.95771102928365     -1.31436581567181
  C   5.27792063635320      3.31495466240603     -1.63334999058999
  C   5.89154197034104      2.39786760096726     -0.60906064049814
  C   5.88222593779755      3.04478978276789      0.76890826071298
  O   5.86248374814489      4.46680732919361      0.86341249187959
  C   4.66206180448558      3.74751828433215      1.11464529996131
  C   5.10509925126469      1.08791654513733     -0.51081553935402
  C   5.82877623978245     -0.04430711886044     -0.79756726859800
  S   5.20799019269617     -1.66453021226538     -0.82751360065323
  C   3.46793231200350     -1.46861240681076     -0.32979490067076
  O   2.84895439284477     -2.52750990968354     -0.26553666258472
  H   2.47342084336686      2.23783887389164      1.12944580757984
  H   2.04823685003979      2.34076098210533     -0.54893257572246
  H   2.81783255703766      4.46809743240779      0.27080939281099
  H   3.65842190423621      4.61757433322072     -2.00814665978664
  H   5.74341008542403      3.40820171252177     -2.60707686588333
  H   6.91632497777577      2.15492914446675     -0.89079174918813
  H   6.46307066908681      2.53912087192331      1.53333245712306
  H   4.31902302362724      3.77691099848658      2.14459695103244
  H   6.87713786214370      0.02698890628852     -1.05590907186834
