30
Coordinates from ORCA-job 3485optt
  Br  1.64412090511501      1.06301456050306     -1.73431088130651
  C   3.47928183683524      0.63063474033768     -1.23141563363791
  C   3.72625760028562     -0.60515766630858     -0.70464781967576
  C   2.73366811514021     -1.81090352324123     -0.70341223053041
  C   3.05705327737551     -2.99295485571572      0.30477581804074
  C   3.76153454677318     -4.36669941304477     -0.06538804316847
  C   5.31466715602509     -4.52336781377369      0.33827691011807
  C   6.25461597653656     -3.22558793290951      0.44122717175624
  C   5.23215843124044     -2.18761885162955     -0.01677886638116
  C   4.13491276557987     -2.37175890677546      1.11074296989359
  C   5.08375775838743     -2.67334711396625     -1.44001933774750
  C   5.21798176574582     -2.91059384527228     -2.60860366265636
  N   5.10078853870618     -0.75799184434556     -0.24365798973410
  C   6.13777527100398      0.04948353327277     -0.76506546050103
  O   7.30876732903843     -0.33488962228165     -0.63346836535244
  C   5.66865512915915      1.26131325723406     -1.32471829060146
  N   4.35602522589409      1.58036662783885     -1.47883678833671
  H   2.59395225650774     -2.17856195451023     -1.72333490580317
  H   1.77186280171252     -1.40327263508805     -0.39033636280896
  H   2.14252443868403     -3.22157211776237      0.85577924054650
  H   3.63451675201013     -4.61664995282974     -1.11556501090793
  H   3.24033037183911     -5.13763664613201      0.50775229198804
  H   5.75436668663768     -5.19809335153732     -0.39542806315323
  H   5.35086079524812     -5.03955975892823      1.29915558446222
  H   7.11776839332037     -3.29776580099750     -0.21442818346617
  H   6.58792161814552     -3.06322542119945      1.46564907781800
  H   3.88435693381864     -1.39617743372495      1.51650811961577
  H   4.49807297916004     -3.00277977783834      1.91999020186363
  H   5.32204282615138     -3.11224636792120     -3.64662666286187
  H   6.40440151792279      1.98659988854728     -1.64481482747162
