31
Coordinates from ORCA-job 3488optt
  Br  0.97240023054225     -0.52141953017610      0.21501312412708
  C   2.86328470659356     -0.18174677063411      0.04926652189278
  C   3.73828618609993     -1.30269528512565     -0.03899104178255
  C   3.12643960991725     -2.69113418269494     -0.28581640767100
  C   4.31049046751445     -3.57880852429683     -0.60807956538299
  C   5.24342125625088     -3.49164003375382      0.60400316496865
  C   6.10996017598995     -2.31482587153747      0.23483428203540
  C   6.93660123552347     -2.72998039600866     -1.03470751438649
  C   6.97005223005986     -4.24652254188236     -1.39615876885069
  C   5.72286662672992     -4.94828747273043     -2.01362248350124
  C   4.38516412395481     -4.96642655548925     -1.22403609240376
  C   5.15044996265643     -1.11957820117595      0.05070292560098
  C   5.74045058364657      0.12044829920097      0.07272598766927
  S   4.91059198440174      1.63327008969102     -0.14151486372260
  C   3.14925541693043      1.19009370913817      0.05552359929230
  O   2.38959551162522      2.15132970164431      0.14112480985323
  H   2.42617896850753     -2.62701846401042     -1.12401668922892
  H   2.55100745250959     -3.03773291374075      0.57981607888829
  H   4.75961967126516     -2.98315819997788     -1.40163077592778
  H   5.81337834281493     -4.40480128665263      0.76717600085844
  H   4.66967915715483     -3.29561496476687      1.51246677673906
  H   6.80807681546861     -2.04856995827890      1.03299349803462
  H   7.97583670124369     -2.42439505975997     -0.88764571580162
  H   6.58591479151023     -2.16236216248627     -1.90006750313301
  H   7.32369100249214     -4.81574101144571     -0.53245399816903
  H   7.75583199316961     -4.35727547042131     -2.15013521632565
  H   6.02218490850289     -5.96666351214386     -2.27958207270830
  H   5.51580314885719     -4.43339680822361     -2.95775744964069
  H   4.37451294442023     -5.75476958500632     -0.46618586765298
  H   3.57010422627706     -5.17190421358125     -1.92372049871915
  H   6.80586956736949      0.21632717632688      0.24547575504839
