31
Coordinates from ORCA-job 3495optt
  Br  1.57832540361037      0.72810079322608      0.78609423370360
  C   3.34158257264972      0.14739302170338      0.27788449348818
  C   3.60180178472160     -1.24618472910277      0.17728911459668
  C   2.77075687989933     -2.42928273518870     -0.19718249909941
  C   3.82823265273568     -3.53676918570775     -0.11534898966313
  C   3.95848109659410     -4.21537814126702      1.24980949846541
  C   4.90745373520404     -5.38656126875516      0.97185805171794
  C   4.65701511868090     -5.79239648120227     -0.50769612336471
  C   5.95540993933522     -5.82080861209658     -1.30120662627996
  C   5.84716377033601     -6.42762388115691     -2.66684622938234
  O   4.87424701759020     -6.97808324648688     -3.10965141075677
  C   3.68427263325120     -4.72420784723338     -1.05595040061081
  O   5.09076636520112     -2.89228198700215     -0.40721761613891
  C   4.93907619821858     -1.54569727982037     -0.12533984721803
  C   5.93072319457007     -0.61140320305992     -0.20353337525842
  N   5.66099139427737      0.73658178444047      0.00406521613261
  C   4.38054056258001      1.05284620807242      0.23930131736646
  H   2.36353020318625     -2.36899635027784     -1.22456930966378
  H   1.93132953400964     -2.62914701511147      0.47296510514586
  H   2.97407975043782     -4.57579254112808      1.56104945736032
  H   4.32524795980683     -3.51718329724676      2.00139966237919
  H   4.75932143428913     -6.22217136170870      1.65722788138817
  H   5.93816806700671     -5.04652575771641      1.08771919884931
  H   4.19979118318620     -6.78088136549410     -0.56983221217126
  H   6.73593070862831     -6.39130998223616     -0.77890297440505
  H   6.35540228568746     -4.80513224033282     -1.40558040452674
  H   6.76683992781359     -6.36180476786039     -3.28454084464251
  H   2.65333425550692     -5.08137301154180     -1.00802014887868
  H   3.89104982990490     -4.44356620836385     -2.08914468297105
  H   6.95548373812558     -0.88859815424436     -0.41822013983523
  H   4.16665080295499      2.10423884390040      0.41412060427307
