30
Coordinates from ORCA-job 3496optt
  Br  1.12925695812523     -0.35982812252644      0.06043294911186
  C   3.01870330143509     -0.15628624542845     -0.06768781200571
  C   3.61926897665476      1.12277898394171      0.15303671413290
  C   2.79350230437985      2.33136318431156      0.50129000927874
  C   3.64238206278427      3.59755258059456      0.61528521293935
  C   4.89725181759644      3.29541021272292      1.43307984094133
  C   5.70030800431219      2.52223877596612      0.38115579615427
  C   5.55086853809533      3.45556633402552     -0.83591819448773
  C   6.58225183717360      4.57922638485119     -0.85629729380651
  C   7.98412512482356      4.18695768122227     -1.21122231470924
  O   8.33856760924257      3.10611447182500     -1.59643481880463
  N   4.19584715991442      4.03336921204970     -0.68941655259219
  C   5.02071183475403      1.19887984354455      0.12278188897280
  C   5.77415444248758      0.08725540280634     -0.16538565484570
  N   5.13285908349509     -1.10661468370955     -0.50332811496842
  C   3.74564971046796     -1.32488695937638     -0.37899638307495
  O   3.32471348032065     -2.47672929596696     -0.56007262116886
  H   2.25697057907481      2.17609174774024      1.44901331975367
  H   2.00441234530145      2.49355780611188     -0.24506170552892
  H   3.04745463574760      4.40694312008089      1.04425095962819
  H   4.67944028987412      2.69381938286320      2.31492354041745
  H   5.39918937623461      4.21595912613041      1.74166891947657
  H   6.74744765972891      2.36390815448103      0.64658074523977
  H   5.63546717684007      2.87965700946071     -1.75845315674390
  H   6.61478115117503      5.10124960812137      0.10697639947796
  H   6.28060888836067      5.34915190730115     -1.57743571932107
  H   8.73262859221336      5.00311829681751     -1.10981745559090
  H   3.59962934278524      3.68729339563425     -1.43078879794424
  H   6.85195428087386      0.10730749404677     -0.23925349029962
  H   5.65759343572744     -1.96042480964318     -0.58890620963228
