28
Coordinates from ORCA-job 3506optt
  Br  1.12843324447571     -0.00845712581261      0.20213788168613
  C   3.02409641864276      0.09596713387972      0.12440953808684
  C   3.67784156580670      1.31565241596031      0.40165547622405
  C   2.91719167810062      2.59152707161807      0.64225283085024
  C   3.84247186526817      3.79245662707660      0.78461936444881
  C   5.04132494591779      3.44347651016226      1.65388598021370
  C   5.82538247257180      2.59984645774230      0.64138945621749
  C   7.29789320432108      2.42647666784683      1.01548413162606
  C   7.49955521919063      1.79526030478281      2.31972189634187
  N   7.68598830361720      1.35756420994983      3.36338902000214
  C   5.68445794733250      3.49603352258168     -0.60525896134635
  O   4.42905306271112      4.14812992528832     -0.47672893531587
  C   5.08431326476555      1.29829419471408      0.40879782319327
  C   5.75299247602424      0.14093819382608      0.11177198343208
  O   5.09734745277020     -1.03347636193778     -0.18840381555979
  C   3.70401554090196     -1.11108577701666     -0.17053908645573
  N   3.17666201639613     -2.25587787798962     -0.42424819919674
  H   2.29950074670217      2.51175116788785      1.54698287140079
  H   2.21920619040855      2.78743295970144     -0.17840152292774
  H   3.29010478075753      4.66735677737339      1.13054881310501
  H   4.77833857236292      2.88026743667875      2.54828708968229
  H   5.60129958792123      4.34251751642649      1.92930670911295
  H   7.77457756128343      3.40915019660837      1.06077927152916
  H   7.82483938647224      1.84398015082323      0.25749437875988
  H   5.70633168676728      2.90293572501461     -1.52107094394005
  H   6.47755087367890      4.25580736425356     -0.64406281538206
  H   6.81882229633211     -0.01277872409702      0.16063906672528
  H   3.92640763849933     -2.92114666334292     -0.59483930251372
