33
Coordinates from ORCA-job 3507optt
  Br  1.21743988601713      0.58299034903227     -0.38715982742916
  C   3.15044051191220      0.32075130066656     -0.14340011408272
  C   3.60332585932056     -0.93283969460077      0.17413552986231
  C   2.73946345103078     -2.14139986626201      0.38272136876186
  C   3.41486019705873     -3.42562600394450     -0.13062075999539
  C   3.60662371912973     -3.37850312235058     -1.64582171874985
  C   2.27809793616778     -3.47260627774965     -2.38425990936473
  C   1.55958212077884     -4.76202162685582     -1.99927273886750
  C   1.49428034370742     -5.00038045358823     -0.50442123699414
  N   0.54834765352031     -5.62799470056789      0.08912440226952
  N   2.58950871380184     -4.59559882224217      0.20769125476907
  C   4.75838629693321     -3.58152419719396      0.58459309900011
  C   5.69173863835193     -2.40768956434734      0.29425021274348
  C   5.01964803291259     -1.07085627543203      0.41260458003576
  C   5.77856863428297      0.12845728210915      0.30080570418089
  C   5.17594031007816      1.31410263919455     -0.00718420738611
  N   3.83408749045536      1.45676035477237     -0.25935290295684
  H   1.75990607881502     -2.01851699392434     -0.07634531899444
  H   2.56415888387545     -2.28488326900803      1.45953011102957
  H   4.25492524695315     -4.21071304547860     -1.94335039102777
  H   4.11453710370692     -2.44780151924386     -1.89931569358549
  H   2.44221834557503     -3.45093351584376     -3.46357352475288
  H   1.66015103672325     -2.60477360042554     -2.14357663621969
  H   2.10526386992160     -5.61250354407748     -2.42195352867323
  H   0.54518639223544     -4.79376071708217     -2.39797330842876
  H   -0.15079240705474     -5.91856947200851     -0.58783447483578
  H   2.46176366383991     -4.73363104299409      1.20304150883568
  H   5.21276491443312     -4.52948368532334      0.28195638184299
  H   4.55999680237269     -3.63409857746716      1.66161092986106
  H   6.10493356586480     -2.55063452377569     -0.72382903871078
  H   6.55886650044006     -2.45938650798777      0.96080909551985
  H   6.85231899380936      0.10812706660707      0.46580247908065
  H   5.75746121302932      2.22954162739337     -0.06043132673753
