29
Coordinates from ORCA-job 3510optt
  Br  0.80223891997369     -0.64890677150778      1.25214697262469
  C   2.71074774014857     -0.46907759611165      0.78009957019325
  C   3.54367696258676     -1.53923069023642      1.00142685661423
  C   3.15207154095193     -2.86073472865815      1.59363308989978
  C   3.61578981918875     -4.11133043016891      0.80441353945813
  C   4.22545089440230     -3.78602884048098     -0.56181757649003
  C   5.70626515729972     -3.42789008475039     -0.34420025979896
  C   6.43920974023421     -4.71258269068068      0.10885948845619
  C   5.47034777291082     -5.59906846817433      0.89690803753335
  O   4.56230809793728     -4.81512735364179      1.63171336753393
  N   5.89267724535094     -2.37596695275271      0.67833667335692
  C   4.94002376359740     -1.31000039272040      0.65210044421798
  C   5.28014438878338     -0.04478996180924      0.14312949335914
  C   4.32567050526233      0.92345915735324     -0.00268040210536
  N   2.98764483908845      0.72952382967659      0.30710517480157
  C   6.29068945849107     -2.96424673312254     -1.61726415649941
  N   6.75249659678467     -2.66501593620671     -2.62403037337720
  H   2.07244542622800     -2.89734698371069      1.71289834658418
  H   3.58331372123670     -2.97630160931093      2.59663646421406
  H   2.76205434227143     -4.78321702151078      0.65523750326852
  H   3.68874832055501     -2.94921933164475     -1.00740871895465
  H   4.15729480996893     -4.63511964226510     -1.24651357930100
  H   7.28813446050939     -4.40810134468395      0.72436406378220
  H   6.82749170551640     -5.25924030029743     -0.75181483514855
  H   6.00718622286088     -6.21868112252372      1.61581333955583
  H   4.92701649741406     -6.27243781166723      0.22132434455174
  H   5.88814504032332     -2.84900666097393      1.57621503579421
  H   6.31011888396384      0.15425996778982     -0.13125970418850
  H   4.58059712615962      1.90842650479160     -0.37437219993623
