29
Coordinates from ORCA-job 3514optt
  Br  2.17303409480655      2.08210742937132     -0.68388038849856
  C   3.82233901437645      1.03163150134850     -0.40751119785410
  C   3.75035769357175     -0.33904251512104     -0.48107981981057
  C   2.49540410070762     -1.11426131219300     -0.73954684101333
  C   2.20423377423388     -2.26052798390695      0.25628703498298
  C   0.70094736470973     -2.55665818824894      0.22814059432559
  C   0.29976658462974     -3.69877934103027      1.04352020407923
  C   -0.03158539505738     -4.62548815060552      1.72795550838804
  C   2.76039211164302     -2.02700229139786      1.67782024702640
  O   3.90124039537889     -2.87283544464582      1.76611176094564
  C   4.14525139761254     -3.38324369438014      0.47512608672040
  C   5.13613258044018     -2.53611671645022     -0.33253326303832
  C   4.99651863583457     -1.04810144581527     -0.23794622774969
  C   6.11106573675079     -0.24144149676858      0.07371115513776
  C   6.02514453602145      1.12197582868778      0.10402578381805
  N   4.85770041043550      1.81622469201454     -0.16872386627329
  O   2.87784416660172     -3.45029384129805     -0.13685708438636
  H   2.52749135392767     -1.60027621823371     -1.72437619292195
  H   1.64419761840854     -0.43613876996891     -0.75113038113129
  H   0.41016361887203     -2.73179386997063     -0.81127551423988
  H   0.16608758303626     -1.66588305003614      0.56657108699950
  H   -0.31117854285754     -5.45516916510183      2.33002643356953
  H   2.04625768830139     -2.34268189282775      2.44158709723604
  H   3.04227988777766     -0.98328024685673      1.82544623226966
  H   4.50859982500493     -4.40894895783565      0.57446291155278
  H   5.06349351870820     -2.92408279512457     -1.36374788927579
  H   6.13759116576307     -2.79702170104921      0.02133275277968
  H   7.06469016796639     -0.71141580491987      0.29782339076025
  H   6.88653891239431      1.73154544236454      0.35166038560160
