25
Coordinates from ORCA-job 3518optt
  Br  1.17139517598853     -0.06450896946555     -0.05248367194867
  C   3.08529752108594     -0.03899305454341     -0.02873249727024
  C   3.78310257135407     -1.27002064705826     -0.02380299896351
  C   3.24069104299379     -2.68309354172836     -0.02305533374322
  C   4.52935173512172     -3.44186399543491     -0.01854441999221
  C   5.63533970335817     -2.63184094456707     -0.01586815781607
  C   6.78331903857970     -3.46962566545683     -0.01260908646235
  C   6.31786597499657     -4.76395151214498     -0.01330977799407
  N   4.93666030430269     -4.73929344487316     -0.01680403312705
  C   5.17755109565321     -1.23853920512464     -0.01802684900896
  C   5.92213367332566     -0.05106084398452     -0.01452673282437
  C   7.32667135232795     -0.09294147031794     -0.01218931020675
  C   8.53880622395498     -0.13352073604885     -0.01038390048739
  C   5.17032618128234      1.20725867248758     -0.01438603404253
  C   3.75696275766397      1.15396811562140     -0.02384629729285
  C   5.80766611512237      2.45792570259577     -0.00538855045399
  C   6.35052002192293      3.54366249827039      0.00253122057299
  H   2.62310495424510     -2.89231590340346     -0.90433995698794
  H   2.61931371873608     -2.88946468986455      0.85636985628404
  H   7.81592489344283     -3.16406372698353     -0.01037013753508
  H   6.84924762897728     -5.70102417412708     -0.01183685636361
  H   4.34514625273181     -5.54951848739704     -0.01830597952969
  H   9.60005371383983     -0.15707325514431     -0.00881563808980
  H   3.20567950458745      2.08538712768609     -0.02753149851902
  H   6.83586884440494      4.48751215100723      0.01025664180234
