26
Coordinates from ORCA-job 3519optt
  Br  0.94146038064595      0.40761161472693     -0.11968090068369
  C   2.82081160841695      0.18844945916756     -0.41706543738999
  C   3.42422333285559     -1.05326034992864     -0.16931057254968
  C   2.71794042227938     -2.37778005325984     -0.11519046202073
  C   3.85095088973560     -3.37254756900606      0.23171485747348
  C   4.15638088186043     -4.40377140898178     -0.81799721266157
  C   5.40859475245989     -4.30775263013046     -1.23837528632430
  C   6.13641799966719     -3.19979380669760     -0.52983708534441
  N   5.10963007292039     -2.59144325829871      0.33076553299236
  C   4.78506830949932     -1.23929138509370      0.06194321693885
  C   5.71404979800616     -0.20855675965746      0.01708806600206
  N   5.21795915398771      1.04026863305940     -0.48255133726054
  S   3.73513809060425      1.58634705829720      0.04283891106425
  O   3.73312793747472      1.79356054123615      1.47260546688628
  O   3.42757430308247      2.74407014736803     -0.75921782370126
  C   7.06761426485882     -0.32317076567365      0.33410771695035
  C   8.25681965124021     -0.42132587753016      0.55914110256426
  H   2.23315005198075     -2.62003352913992     -1.06756223993910
  H   1.93645083546729     -2.37724128452571      0.64783922112005
  H   3.63446962206695     -3.85924720455139      1.18853234041485
  H   3.42108021989889     -5.11971008678962     -1.16203468779605
  H   5.87473185777392     -4.93583618742042     -1.98687722038517
  H   6.54543989894864     -2.45862852098388     -1.22161984893378
  H   6.97728868976897     -3.58023360386732      0.05998280585017
  H   5.88772303518859      1.79903807094447     -0.48474151154844
  H   9.27390393931070     -0.49072124326332      0.85650238828179
