30
Coordinates from ORCA-job 3520optt
  Br  1.06232725330226      0.20269018497593     -0.10690131367778
  C   2.97155624018486      0.14342346945661     -0.35409411583634
  C   3.64379805224155     -1.10249537239466     -0.38699937444702
  C   3.11405057418803     -2.43861221685191     -0.81431353175839
  C   4.21565248426986     -3.41442857567336     -0.36242400075150
  C   4.03508613705188     -3.88834065500976      1.09137362232611
  C   4.65318676542567     -5.28437921791561      1.08161113899673
  C   4.16087115870648     -5.82597718546661     -0.25578662817552
  N   4.27328989729125     -4.67021798526395     -1.14702711498763
  C   5.50138114621087     -2.56840223448611     -0.48567068254151
  C   5.02069501067516     -1.17419327779550     -0.18713667684587
  C   5.78559292314446     -0.07348688221869      0.14050592244731
  N   5.06734157695549      1.11554756450234      0.31425097818021
  N   5.60630057808169      2.29259849752076      0.70043720670538
  C   4.55003872777003      3.08332820278870      0.72801780147170
  N   3.37608984890908      2.52172066600270      0.38257355942399
  C   3.72198387626376      1.25692642097547      0.10896491933524
  H   2.99608415450923     -2.48773284956063     -1.91037115813656
  H   2.14071592382667     -2.68385000921950     -0.37966056862897
  H   2.96999959861203     -3.96077975512292      1.32884279404588
  H   4.49295072283061     -3.19924412343034      1.80018616734518
  H   4.35529873912153     -5.90511888750199      1.92692541739209
  H   5.74376811636173     -5.21609550483656      1.07167923086228
  H   3.12496904928215     -6.17571690285120     -0.14664066129489
  H   4.75990246729926     -6.66402738426639     -0.62036363860267
  H   3.56522727943952     -4.67403655102344     -1.86728108105357
  H   5.88106253199113     -2.64398403950657     -1.51006225421250
  H   6.29237891760063     -2.91851255890952      0.18540976477163
  H   6.84387609313763     -0.03318229477017      0.33260914473006
  H   4.64252415531540      4.11957945785295      1.01734513291694
