30
Coordinates from ORCA-job 3521optt
  Br  1.46859885741349     -0.79839243824926      1.31911663941970
  C   3.08309060282879     -0.37828075668797      0.36840688691969
  C   3.92236971385119      0.55636602588963      0.86159057645647
  C   3.66294831589829      1.35624805873284      2.16265156210299
  C   4.46465297419895      2.59898410396562      1.82744428193759
  C   5.98209382448877      2.39573574311732      1.93816987925627
  C   6.22676620765465      3.11627651718167      0.63433567008866
  C   5.37356770070553      4.41117546691243      0.92802898729284
  N   4.43386115088416      4.06573205112066      2.07900855483267
  C   5.70804673002010      2.04770781609404     -0.44132383942216
  C   4.80150033959129      2.61660174163894     -1.44059050282874
  C   3.99206656485729      3.04637080437176     -2.21806061019190
  N   5.15739598419363      0.76784833779130      0.14437921678170
  N   5.67763646793489     -0.31855811531360     -0.59339391733823
  C   4.79744128961447     -1.18050308159653     -1.03754940839609
  C   3.39863497868941     -1.22062670408588     -0.76733662530319
  N   2.48975052518183     -1.99198074660231     -1.35949954851923
  H   3.99207955517069      0.82766814767704      3.06250164908532
  H   2.59258856749753      1.53682252518777      2.24439005184213
  H   4.18640274001523      2.61832008880346      0.78294733602507
  H   6.32066279182869      1.36814568186034      1.95923597074771
  H   6.34484973273338      2.94634476154111      2.80749674239238
  H   7.25469981743643      3.38928937466318      0.39093567673536
  H   4.81115941019408      4.72324286927990      0.04461881586579
  H   6.03754206996191      5.22154821981365      1.22996666823606
  H   3.51506156984884      4.42333235192204      1.83664553797543
  H   6.58756479534963      1.67132279116651     -0.96327546553368
  H   3.26773024233123      3.39031603900879     -2.91548512595686
  H   5.21939476484504     -1.97434509051072     -1.65278626383195
  H   2.95684171478044     -2.52371258469379     -2.09356939667183
