32
Coordinates from ORCA-job 3527optt
  Br  5.05247853692471      2.71478076886221     -2.32840716177059
  C   4.17542121714496      1.12143993559178     -1.67599904915736
  C   3.12614221276648      1.26986761204130     -0.76099097678396
  C   2.08253519555668      2.37629464889938     -0.94257485603760
  C   1.13252226494965      2.29382730845761      0.21826108853243
  C   1.68458924593114      2.73167298134651      1.57456491068685
  C   0.56435766054516      2.23058313840602      2.46909023583122
  C   -0.69278704634746      2.48356208585861      1.55285061451757
  N   -0.21220644702742      2.89128525612214      0.21292481289152
  N   0.83202197904581      0.84570960000312      2.87765010921543
  C   1.13610707389782     -0.22297198115912      1.91500714969392
  C   2.55484547272614     -0.21355812466332      1.26676459697232
  N   2.67102015362803      0.01531336651361     -0.18819164677711
  C   3.01009476624088     -1.12856412079357     -0.89887494908711
  N   3.84607755078275     -1.23826464350847     -1.84540659986039
  C   4.66912636739457     -0.10159754236284     -2.17742260713631
  O   5.68227188551328     -0.28979914149420     -2.85956067128498
  H   1.52528614120352      2.23045064228716     -1.88065288533372
  H   2.58634443925230      3.34256319607570     -1.01035003399830
  H   0.89522494790472      1.23908682689837      0.26456969535507
  H   1.74330535683608      3.82455062913656      1.58218371914420
  H   2.66174745162621      2.34236852322467      1.83711040170324
  H   0.47473119550110      2.79412678802288      3.39971135821659
  H   -1.35810667690917      3.23976247298796      1.97185888056522
  H   -1.26236743713337      1.55406695055008      1.45651997090988
  H   -0.12619464357290      3.90375829402504      0.19044300629539
  H   0.08885427822277      0.52674577621666      3.48509368350319
  H   0.39136231541028     -0.33677174277003      1.11491534034475
  H   1.07577447728642     -1.13632574507094      2.51038162862355
  H   2.98275290353366     -1.19994335731101      1.45757589414470
  H   3.19997261493244      0.49093801607937      1.78824685488893
  H   2.47369454623271     -2.02295841847332     -0.57029251480857
