32
Coordinates from ORCA-job 3533optt
  Br  1.34121383103259      1.01079066709883     -2.59692241880139
  C   2.02137046275560      1.03897213866452     -0.80859182073362
  C   2.21847786613600     -0.14956012304256     -0.15668007580465
  C   1.96124511567370     -1.56811888576198     -0.58264438316422
  C   2.78626974356389     -2.40483386448167      0.42554826983033
  C   4.18414068172986     -2.67477384625220     -0.13547367778790
  C   5.02940170585914     -3.60246622897262      0.72905666611677
  C   6.42388152677581     -3.85635340110873      0.16244328625688
  N   6.35851823417128     -4.60437769299252     -1.08153176481040
  C   6.95429646791667     -5.70837430164918     -1.13506990661300
  C   2.83190999978294     -1.52597833833467      1.69811881916721
  C   2.71781119565216     -0.13204085871445      1.14724159876478
  N   3.01516105568626      1.00076275980275      1.81564515045590
  C   2.82543402994206      2.13052759189663      1.17515815102056
  C   2.32939791271513      2.27620041181129     -0.16463673677567
  C   2.18862742151374      3.57933560633259     -0.71787031366102
  O   2.47595874297607      4.64592387575595     -0.12688185766904
  H   2.25035589625174     -1.76221220077490     -1.61771350060771
  H   0.89231860313193     -1.79328737516262     -0.50061325277754
  H   2.30105599937547     -3.36590571549262      0.62118788972485
  H   4.70078957366949     -1.71577909823168     -0.25629739939221
  H   4.09491044176775     -3.11256619958054     -1.13247958698284
  H   4.52020815680837     -4.56454448537198      0.85221540491798
  H   5.15118583243331     -3.18029806112741      1.72888711377917
  H   7.04850902031997     -4.37666546706886      0.90257911226077
  H   6.89204191607651     -2.89402821608869     -0.06215525783199
  H   7.52578133964971     -6.11903654133699     -0.29220947707302
  H   6.91496473136254     -6.29883558552373     -2.04870117381441
  H   1.99238803987038     -1.76665506357765      2.36466228472051
  H   3.74401180136684     -1.66473758796145      2.28347455065268
  H   3.06594088071078      3.05118572693270      1.69595244310672
  H   1.79342177332226      3.62073036031446     -1.74569813647449
