23
Coordinates from ORCA-job 3545optt
  Br  1.46330596490192      0.47508333774596      0.33762995864035
  C   3.29476085627173      0.04144862139009      0.16663912672441
  C   3.69267597615713     -1.28042941584130      0.06202340175455
  C   3.01178080079633     -2.50319483768367      0.02552425158813
  C   3.92807906897679     -3.55703081598539     -0.18577023053409
  C   3.81432497278623     -4.94034890640063     -0.27563150944637
  C   4.93521611662255     -5.61644836956792     -0.84607269036663
  C   5.94459756902355     -6.01360801779794      0.13745789798576
  N   6.20964605397729     -7.06841193148435      0.77604595910138
  O   6.76859685459907     -4.92019967507892      0.43783085415813
  C   6.45260794322243     -3.61887293373095      0.19223137041251
  C   5.29681306715759     -2.99734649565454     -0.12538926007271
  C   5.12330496306296     -1.53528959967359     -0.07784266178868
  C   5.96906586251340     -0.50592100175552     -0.12506688543639
  O   5.56173333639155      0.77638958671140     -0.01147782711290
  C   4.21307091224598      1.12999348489953      0.14483653447049
  O   3.98583192169409      2.31381343074886      0.23936424093224
  H   1.93977741586761     -2.61172304358574      0.08450515604001
  H   3.01443048855226     -5.46831305065141      0.23399974032642
  H   5.41807711280430     -5.02697843792323     -1.62502071199099
  H   5.60344399646406     -7.80272780307286      0.42045310868977
  H   7.33430269659154     -3.01538047732865      0.37307000904434
  H   7.04055604931958     -0.57950364827916     -0.25633983311975
