31
Coordinates from ORCA-job 3549optt
  Br  2.35425731619719      1.58505092433989     -3.46879952892343
  C   3.21690581252960      0.87323758320554     -1.87091433873039
  C   3.74119857654899      1.79421998753660     -0.96044490085472
  C   2.86610817810659      2.95240728931937     -0.47451466410464
  C   1.63240103182802      2.27789090607866      0.12022641032707
  C   1.78949427125735      1.61631785091680      1.48024049923601
  C   0.40221753971414      1.00527184329170      1.61496984617043
  C   -0.45807650107561      2.10558143626254      0.92160983936894
  O   0.44389114227480      3.05341961873775      0.34302473880245
  C   0.35271246816475     -0.35959377618336      0.88934219716914
  N   1.34615717361442     -1.32283706506480      1.38762165079554
  C   2.22669223510437     -1.94652616926809      0.37016209859857
  C   3.19784249116287     -0.94400372512400     -0.21745194250888
  C   4.15413988613939     -0.40627101552399      0.54540379531825
  S   4.94145758325748      1.10986166030260      0.12614899208035
  C   2.95446796491919     -0.50224427647128     -1.63422995507958
  O   2.45041330262566     -1.31355891457806     -2.43584277448396
  H   2.56821067932806      3.58122721523448     -1.31632823235191
  H   3.39158018232678      3.56824367281663      0.25780302389204
  H   1.35590846749048      1.52488277594828     -0.61909744136616
  H   1.96212437984688      2.40353937155761      2.21972369644712
  H   2.56655267972893      0.87263473117170      1.56389752095928
  H   0.10301078780217      0.86186624364635      2.65532153506878
  H   -1.10164917865901      2.64070979285384      1.62103879170988
  H   -1.08428433936744      1.66803625268028      0.13336133054687
  H   -0.66113732691899     -0.76857094402113      0.97525407471071
  H   0.52133125323263     -0.20732383879207     -0.18005946995452
  H   0.88373728466032     -2.05941095195887      1.90203775947817
  H   1.66706938495271     -2.39328944956440     -0.45796864511998
  H   2.77110334450937     -2.74209261373117      0.88516551973614
  H   4.35716192869789     -0.78467641561942      1.54429857306244
