31
Coordinates from ORCA-job 3550optt
  Br  3.11065554869414      1.42711962297413     -3.63120430262740
  C   3.12013380147292      0.72704918259384     -1.77128982694292
  C   3.63535290041109      1.54757347684961     -0.73312249003356
  C   2.84605665908795      2.79231390596113     -0.33508009974144
  C   1.56438918589564      2.15846550453182      0.22077170859582
  C   1.66972879750854      1.48795961426376      1.58363573054460
  C   0.27384953977573      0.88988402008290      1.66871664957461
  C   -0.55411681526933      1.98510130573376      0.92695764254721
  O   0.37368648562739      2.94249240736312      0.40149545847417
  C   0.27071154850641     -0.49322103793412      0.96679446761465
  N   1.30055019378928     -1.39725469497358      1.49043808519204
  C   2.20774320606390     -2.06216902322723      0.51663070410955
  C   3.07470169635596     -1.07475704707326     -0.21294450380611
  N   4.06125877380521     -0.46936534014444      0.51752221646581
  C   4.30918911649740      0.79871064171373      0.26152789832927
  C   2.78930548458756     -0.56048838319332     -1.47729879228628
  Br  1.82951413892211     -1.69330001295113     -2.80164770649393
  H   2.61943716880782      3.42699289199851     -1.19463716134216
  H   3.36779530872301      3.38318299310551      0.42331706712007
  H   1.29542318217531      1.40977231274459     -0.52662448939758
  H   1.82768495080405      2.26958605610584      2.33315145109060
  H   2.42652718692294      0.72369853107674      1.69294809376110
  H   -0.06804403366442      0.76284745067807      2.69801476783962
  H   -1.24277118874272      2.51534621899826      1.58553000787629
  H   -1.12731498056687      1.54241720174376      0.10204207773037
  H   -0.72861058186288     -0.93778138303168      1.05296492572177
  H   0.44212041449550     -0.35017233898643     -0.10265898722493
  H   0.88884576902127     -2.10161322689419      2.08650097087384
  H   1.65130403853582     -2.66797460700631     -0.20578619330258
  H   2.84617108945991     -2.72051665346314      1.11024866300044
  H   4.98772141415931      1.30010041035977      0.95408596673705
