27
Coordinates from ORCA-job 3555optt
  Br  0.94747395885138      0.09178587193105     -0.01202004306618
  C   2.84827635573865      0.12391219673195      0.15084766019834
  C   3.53923494154384      1.30824484917598      0.29876119045699
  C   2.78931562157717      2.61357258169051      0.47384473964937
  C   3.71833064708593      3.81659849992601      0.55392225559632
  C   4.91144400445933      3.49653408487879      1.43784187312541
  C   5.67387956795701      2.61309414781810      0.44997276446968
  C   5.56940252297574      3.47173941140766     -0.81724821225488
  O   4.29465349584908      4.09972289612402     -0.72876008539467
  O   7.05510251092706      2.47906537678896      0.75981064508956
  C   7.39493972866212      1.66041742519743      1.77196623468230
  N   8.57511815349611      1.53086101140108      2.19430602273253
  C   4.94687095647372      1.29065903130213      0.24494571428865
  N   5.74385021319829      0.26791553263141     -0.10667030446940
  C   5.30425624893402     -0.97980000061004     -0.32119692425870
  N   5.98424596733166     -1.99248617804666     -0.72369221617504
  S   3.58452630100227     -1.44584057230717      0.04704003371768
  H   2.17181840148033      2.57497966647485      1.37865853495933
  H   2.10290075900214      2.76565212733449     -0.36296113731406
  H   3.16572932929070      4.70569032708453      0.86113225917717
  H   4.63704715009367      2.97305345498553      2.35302616731984
  H   5.49712103566409      4.38792860289951      1.67057857330023
  H   5.62498851074047      2.86397922956312     -1.72018563591031
  H   6.36225006248901      4.22726365038592     -0.82536486918420
  H   6.57039889464458      1.11719603220386      2.22692558321061
  H   9.20406043234959      2.10592252189464      1.63197925276849
  H   6.94776422818193     -1.67966177886771     -0.84646007671506
